data_cif

_audit_creation_method             'generated by GULP'

_symmetry_Int_Tables_number        1

loop_
_cell_length_a                       55.376
_cell_length_b                       57.415
_cell_length_c                       61.5736
_cell_angle_alpha                   90
_cell_angle_beta                    90
_cell_angle_gamma                   90

loop_
_atom_site_label
_atom_site_fract_x
_atom_site_fract_y
_atom_site_fract_z
La	0.0987862	0.00454535	0.03055125
La	0.100613	0.00321825	0.15525285
La	0.0989703	0.0047156	0.2814269
La	0.10380225	0.00480235	0.40660105
La	0.10354605	0.0026391	0.53225335
La	0.10247205	0.0044063	0.65623165
La	0.10042325	0.0035973	0.7807699
La	0.0987017	0.003667	0.9060589
La	0.09877665	0.10506315	0.03089685
La	0.0974457	0.10231575	0.15619825
La	0.09824615	0.1040687	0.28183685
La	0.10102125	0.10328905	0.4057897
La	0.0987603	0.10532145	0.53311885
La	0.0990221	0.10390035	0.6573419
La	0.09889155	0.10377465	0.7824742
La	0.09701655	0.1047045	0.90534435
La	0.09672025	0.20765205	0.0316969
La	0.0967427	0.20759845	0.1551889
La	0.1098112	0.21126375	0.2791033
La	0.09844295	0.2051824	0.4079396
La	0.09818245	0.2067161	0.532491
La	0.0977781	0.2051149	0.6571534
La	0.0964418	0.2071094	0.7819114
La	0.09699485	0.20638745	0.90577965
La	0.09667205	0.30573915	0.03001125
La	0.098068	0.3062072	0.1552535
La	0.09872795	0.3068885	0.2789834
La	0.0976148	0.3053254	0.4085926
La	0.0967226	0.31018845	0.532186
La	0.09689855	0.30738985	0.6549341
La	0.09832485	0.3059876	0.78027335
La	0.09665705	0.3073421	0.9049534
La	0.09813465	0.4049204	0.03063855
La	0.0999761	0.4054405	0.15421335
La	0.1015767	0.40462115	0.28154135
La	0.1008981	0.4036838	0.4068404
La	0.0991358	0.40511415	0.53220105
La	0.09789885	0.40567445	0.65566855
La	0.09808015	0.40589185	0.78205125
La	0.09954555	0.40619655	0.90628675
La	0.0994039	0.50340255	0.03012135
La	0.0969721	0.50358585	0.15482915
La	0.0989073	0.50137025	0.28220815
La	0.09888455	0.50234225	0.4084323
La	0.09899145	0.5033877	0.53259045
La	0.0976304	0.5053885	0.6563548
La	0.0993695	0.5043179	0.7809444
La	0.0993298	0.5031566	0.90586165
La	0.09776045	0.60444405	0.02997145
La	0.09688135	0.60279945	0.15303135
La	0.0988326	0.6021311	0.2829419
La	0.09932785	0.60157065	0.40801245
La	0.10009635	0.60317085	0.5325065
La	0.0992449	0.60205495	0.65785945
La	0.09758225	0.60403515	0.7822517
La	0.0986434	0.60432245	0.906478
La	0.09711385	0.7041263	0.0300499
La	0.09644485	0.7051967	0.15602725
La	0.0960781	0.705344	0.28070045
La	0.1023177	0.70621775	0.40808755
La	0.09987	0.70516995	0.530257
La	0.098705	0.70557615	0.65798385
La	0.09799105	0.7040461	0.7817961
La	0.098459	0.7043714	0.9069902
La	0.09968105	0.80684565	0.0309267
La	0.0999253	0.80640275	0.15396425
La	0.10366845	0.80546335	0.2819159
La	0.104307	0.806854	0.4076238
La	0.10275485	0.8055471	0.53306225
La	0.10046905	0.8062582	0.65727605
La	0.1045577	0.8129783	0.7814362
La	0.09967605	0.8055997	0.9056391
La	0.1004785	0.9057958	0.02883895
La	0.0992206	0.9047031	0.1559674
La	0.1030709	0.90495155	0.28318595
La	0.1026632	0.9035421	0.40615995
La	0.10453355	0.90535035	0.5323144
La	0.102108	0.9046344	0.657127
La	0.1005928	0.9039665	0.7816221
La	0.0997633	0.9049553	0.9054981
La	0.19794875	0.0023709	0.0322076
La	0.2006306	0.00087145	0.1550559
La	0.2013357	0.00237115	0.28065825
La	0.20272085	0.00486835	0.40631555
La	0.2014696	0.0011966	0.53135675
La	0.2013979	0.0034644	0.6571989
La	0.19981325	0.00145775	0.77970575
La	0.2004796	0.00310325	0.90502935
La	0.1965544	0.1048032	0.02974325
La	0.1976657	0.10149335	0.15582325
La	0.1997797	0.10365005	0.28197575
La	0.20354205	0.0995475	0.40762185
La	0.1995125	0.1035238	0.53250875
La	0.20022715	0.10336915	0.6580621
La	0.1975213	0.10441855	0.7821348
La	0.1985268	0.10414525	0.9056873
La	0.1960498	0.2075635	0.0317492
La	0.19557325	0.2056231	0.1550338
La	0.20163965	0.2029332	0.281694
La	0.2001505	0.2032694	0.40903045
La	0.19873845	0.2047184	0.53155615
La	0.19544435	0.20662495	0.65658545
La	0.1974946	0.20760175	0.7795363
La	0.19508365	0.2083099	0.90544065
La	0.1971826	0.31040835	0.0298031
La	0.20028825	0.31082985	0.1552064
La	0.21204755	0.31581785	0.2807829
La	0.20002675	0.3061274	0.40737095
La	0.198915	0.3071834	0.53153795
La	0.1974848	0.3064259	0.65640005
La	0.1968535	0.30826125	0.7819927
La	0.19636795	0.3076199	0.9047112
La	0.19728985	0.4062294	0.02938305
La	0.19780415	0.40568665	0.15458905
La	0.20037355	0.4034552	0.28356005
La	0.1988006	0.404569	0.4066764
La	0.19795805	0.40524925	0.5313076
La	0.19825965	0.4057915	0.65580995
La	0.1964765	0.40596465	0.78068745
La	0.19781755	0.4051359	0.90502405
La	0.19914725	0.50161635	0.02949725
La	0.1988875	0.5033109	0.1540241
La	0.1994515	0.50047615	0.28268055
La	0.2005292	0.50337185	0.40770155
La	0.1980543	0.50398075	0.53246065
La	0.19846395	0.50298115	0.6563269
La	0.1979518	0.5051408	0.7812214
La	0.1990722	0.50350935	0.90565845
La	0.1958202	0.6023975	0.030097
La	0.2010268	0.60462445	0.15448335
La	0.20093565	0.5977818	0.28048875
La	0.20059675	0.60445745	0.40693575
La	0.20861715	0.61399235	0.5303519
La	0.1986172	0.6020097	0.65673755
La	0.19799235	0.602866	0.782107
La	0.19943885	0.6039233	0.90541075
La	0.1984189	0.7033174	0.029711
La	0.2038152	0.71124915	0.1561285
La	0.20071465	0.7068275	0.2836405
La	0.2011799	0.7146986	0.4083674
La	0.2015716	0.7075633	0.5329556
La	0.19939875	0.70481615	0.6584411
La	0.1979796	0.70524705	0.782365
La	0.19793685	0.70583155	0.90594765
La	0.19968725	0.8073731	0.02873205
La	0.20069635	0.80663875	0.1564353
La	0.20237705	0.80737575	0.2803138
La	0.2051514	0.8136237	0.40738255
La	0.204754	0.81314625	0.53181605
La	0.20194815	0.8076935	0.65576715
La	0.2028543	0.80926995	0.7826954
La	0.19946625	0.8066405	0.90569535
La	0.1997041	0.9041687	0.02919145
La	0.2022729	0.90564605	0.1559745
La	0.20229725	0.9040214	0.2810484
La	0.20376805	0.90647085	0.4068906
La	0.202614	0.90424275	0.5323902
La	0.201567	0.9049135	0.65711505
La	0.1988953	0.9056734	0.7802362
La	0.19932115	0.90473645	0.90512495
La	0.29938545	0.0027548	0.0326165
La	0.30121395	0.0028555	0.15659645
La	0.30137025	0.00339765	0.28209265
La	0.30071865	0.00263115	0.40508265
La	0.3011006	0.0028187	0.5317606
La	0.301211	0.0033978	0.6558182
La	0.2999582	0.00379215	0.77979035
La	0.29974575	0.00161605	0.9054523
La	0.2985268	0.1018612	0.03214555
La	0.2982529	0.1021768	0.15780915
La	0.30119635	0.1019359	0.2826969
La	0.3028988	0.10269095	0.40653405
La	0.30083985	0.10220915	0.5315501
La	0.2990654	0.10321865	0.6560615
La	0.298532	0.1016073	0.7792291
La	0.2979535	0.10282365	0.904252
La	0.29698995	0.21885455	0.0325382
La	0.29780115	0.2025613	0.15811775
La	0.3037935	0.20518545	0.28208245
La	0.30080095	0.20335655	0.40621815
La	0.29734155	0.2058552	0.52986025
La	0.2969431	0.21590395	0.65785005
La	0.2972671	0.20642315	0.77848295
La	0.289909	0.21403935	0.90485525
La	0.2954357	0.3096384	0.02882385
La	0.2972678	0.30917565	0.15511095
La	0.3010608	0.3065357	0.284052
La	0.3034645	0.313597	0.4064941
La	0.30138855	0.31067195	0.5342047
La	0.29717815	0.3103375	0.6555684
La	0.29915665	0.3080396	0.77821085
La	0.29753685	0.3102207	0.9059029
La	0.29934335	0.4059476	0.0289835
La	0.29998615	0.4073473	0.1570028
La	0.30121945	0.40745825	0.2821704
La	0.29937275	0.40567945	0.4070065
La	0.30134375	0.40648995	0.5329647
La	0.2976186	0.4039008	0.6576233
La	0.29705285	0.40605465	0.7806916
La	0.29674785	0.40602565	0.90538765
La	0.2985502	0.50284325	0.0300348
La	0.2994966	0.50424135	0.1570587
La	0.2994814	0.5008344	0.28188405
La	0.3013658	0.5015393	0.40655355
La	0.29929855	0.50350335	0.5314799
La	0.29925105	0.50148895	0.6564577
La	0.2974418	0.5039326	0.7812135
La	0.2964506	0.5038092	0.9042428
La	0.29864365	0.6055046	0.03040255
La	0.30267485	0.60507905	0.15788395
La	0.30082545	0.60261585	0.28219485
La	0.30184835	0.60027885	0.4099882
La	0.30276725	0.60489665	0.53368645
La	0.30031415	0.5966915	0.6568435
La	0.2992194	0.6036354	0.7830322
La	0.3035628	0.60497455	0.9068826
La	0.3076147	0.71636655	0.03187035
La	0.30608255	0.71256815	0.15457555
La	0.3055825	0.71644685	0.2831956
La	0.3026711	0.71717795	0.40195375
La	0.2966955	0.7053414	0.5326083
La	0.29763415	0.70861235	0.6566383
La	0.2975861	0.7080376	0.7824925
La	0.2957909	0.7078421	0.9057191
La	0.30310175	0.81300005	0.0302777
La	0.3027421	0.8093616	0.1544644
La	0.302213	0.80912885	0.28172735
La	0.3009656	0.8085608	0.40539375
La	0.29976245	0.80676165	0.53006805
La	0.30166595	0.81082715	0.65492735
La	0.29849765	0.80805675	0.7804046
La	0.3005466	0.80839605	0.9057653
La	0.300892	0.9070123	0.03036315
La	0.3007865	0.9036905	0.1565008
La	0.30279925	0.90568775	0.28236955
La	0.3009567	0.90401235	0.4055431
La	0.3005501	0.9057735	0.5309468
La	0.30023095	0.9051077	0.65621785
La	0.3002386	0.9048681	0.7813055
La	0.29938545	0.90452325	0.90645915
La	0.40097245	0.0028834	0.03118825
La	0.39827275	0.0014861	0.1569106
La	0.39931065	0.0039263	0.28157905
La	0.40019635	0.0029009	0.4057781
La	0.39908205	0.00289095	0.53023915
La	0.3986622	0.00690245	0.6553928
La	0.39953365	0.0007032	0.7797298
La	0.39901265	0.0005998	0.9063145
La	0.3995602	0.1013353	0.0325694
La	0.40168365	0.1032274	0.15833845
La	0.4014126	0.1024722	0.28296855
La	0.4009176	0.10156695	0.40766935
La	0.4002189	0.10207	0.53132805
La	0.3977531	0.10266205	0.65367025
La	0.3977004	0.10162435	0.78087885
La	0.3932737	0.1116203	0.9034473
La	0.406102	0.20847205	0.03227045
La	0.3995957	0.20400435	0.15976245
La	0.40344545	0.204834	0.27959615
La	0.40014145	0.20611925	0.4048007
La	0.39991885	0.2055128	0.53076505
La	0.39633055	0.2078277	0.6533338
La	0.3977727	0.21854055	0.7769201
La	0.395694	0.21445315	0.90555095
La	0.39857395	0.30924885	0.03067705
La	0.4079475	0.31893255	0.1587701
La	0.39670645	0.3071765	0.28339945
La	0.4030191	0.30875745	0.4063967
La	0.4008583	0.30904235	0.53121255
La	0.3965517	0.31552115	0.6546205
La	0.4013485	0.3153184	0.7819547
La	0.4029892	0.31067655	0.9061015
La	0.3993411	0.4062344	0.0314047
La	0.3999678	0.4055623	0.1566586
La	0.4075967	0.41497625	0.27727975
La	0.4007288	0.40539855	0.40652355
La	0.3994981	0.4070853	0.5311547
La	0.3994615	0.40466895	0.65654875
La	0.40009965	0.40589915	0.7803493
La	0.39879405	0.405929	0.9041256
La	0.400886	0.5015484	0.0316003
La	0.3997429	0.5033302	0.15578665
La	0.40101225	0.5028455	0.2827538
La	0.4013321	0.5033653	0.40658175
La	0.398998	0.50219485	0.53036615
La	0.39799985	0.50263825	0.65561235
La	0.3987036	0.5027988	0.78110415
La	0.399673	0.5030426	0.90619485
La	0.40244355	0.6036409	0.03109675
La	0.4018609	0.60308815	0.15888625
La	0.4009271	0.59971155	0.2827139
La	0.40035735	0.60147825	0.40761175
La	0.3967866	0.6037702	0.5306798
La	0.39813965	0.60122895	0.65795975
La	0.4007845	0.5999967	0.7797856
La	0.40667745	0.61156415	0.9082474
La	0.40798065	0.7124165	0.03151465
La	0.4027965	0.71415805	0.1559307
La	0.4027718	0.70945635	0.28033295
La	0.40343565	0.7123996	0.4053991
La	0.3973835	0.7077952	0.5325572
La	0.3982012	0.71194435	0.65693765
La	0.39592255	0.71239905	0.78225755
La	0.399745	0.7097328	0.90571205
La	0.40121195	0.807529	0.0315074
La	0.4016067	0.8104827	0.1567958
La	0.4005301	0.8074379	0.2813045
La	0.40113585	0.809679	0.4053185
La	0.40055935	0.81389915	0.52901985
La	0.39961645	0.80873375	0.65403845
La	0.40025125	0.8101985	0.78036515
La	0.39862155	0.80641285	0.90475225
La	0.4005311	0.90548615	0.0311812
La	0.3994045	0.9041685	0.15690915
La	0.40028915	0.90577735	0.28205685
La	0.3994772	0.90619445	0.40632425
La	0.3994988	0.90501695	0.5304561
La	0.39876835	0.90499435	0.6564271
La	0.39914025	0.90551765	0.78123195
La	0.3988189	0.90491365	0.9064802
La	0.50062	0.0022544	0.0320418
La	0.4988761	0.00125565	0.1573243
La	0.4996999	0.00381765	0.2822001
La	0.49956585	0.0031652	0.4052703
La	0.4978161	0.0030759	0.53109445
La	0.49878315	0.00218965	0.65470385
La	0.5000675	0.9997287	0.78074865
La	0.4994487	0.0010839	0.9061635
La	0.50189065	0.1047553	0.03024775
La	0.5013283	0.0982014	0.15571065
La	0.50065095	0.1033537	0.28231475
La	0.5005171	0.10140355	0.4065756
La	0.49931975	0.10122065	0.5310363
La	0.4993517	0.10344605	0.6574725
La	0.50022325	0.09676785	0.7807968
La	0.4999642	0.0971637	0.9061684
La	0.5017619	0.21022885	0.0323795
La	0.50220705	0.20567515	0.1568052
La	0.50228785	0.20237965	0.28418305
La	0.50000405	0.20423115	0.4076166
La	0.49845375	0.204752	0.529568
La	0.4979928	0.20785915	0.65343415
La	0.50699915	0.2088143	0.78155395
La	0.5023368	0.20715875	0.9076363
La	0.5024833	0.31111675	0.0302161
La	0.5047884	0.31433985	0.15643365
La	0.5002095	0.3060941	0.28103955
La	0.5010374	0.30732425	0.4048609
La	0.5003292	0.30698265	0.52961835
La	0.5005215	0.3080291	0.65465555
La	0.50174175	0.30632035	0.7805412
La	0.50199705	0.3084078	0.9030418
La	0.5035845	0.4060627	0.0303305
La	0.5007105	0.4075469	0.1579271
La	0.50006265	0.4050342	0.2818398
La	0.4989289	0.40784615	0.4058289
La	0.49982035	0.40589375	0.5301391
La	0.5005175	0.4056793	0.6551137
La	0.49923055	0.40472625	0.78034425
La	0.49941635	0.4054419	0.90567135
La	0.50036025	0.50239905	0.03171815
La	0.499533	0.5016611	0.15565325
La	0.499801	0.5020801	0.27970425
La	0.50060775	0.50346355	0.4064779
La	0.4993168	0.50181645	0.53277005
La	0.5004859	0.4999215	0.65542105
La	0.49892825	0.50408995	0.78142905
La	0.499711	0.50347805	0.90530465
La	0.50351965	0.60265635	0.03023815
La	0.50172895	0.60480145	0.15752705
La	0.4994336	0.60380345	0.2823667
La	0.4995529	0.60056825	0.4071711
La	0.49963555	0.59981525	0.53073965
La	0.4996732	0.59717375	0.6558501
La	0.5000296	0.60195395	0.7815063
La	0.50356645	0.6053164	0.9053154
La	0.50226345	0.7078169	0.03199085
La	0.5052315	0.71554745	0.1575849
La	0.5042149	0.7087961	0.27983935
La	0.4993467	0.70742005	0.4046469
La	0.49766095	0.70858355	0.53075075
La	0.4958562	0.70749855	0.65644705
La	0.49664525	0.70971795	0.77995875
La	0.499327	0.7072844	0.90824535
La	0.5012123	0.80720295	0.03076005
La	0.5002628	0.8100101	0.15509705
La	0.499414	0.8070986	0.27915455
La	0.49833185	0.8075814	0.4054958
La	0.4980793	0.80868115	0.52869
La	0.4982186	0.8068059	0.65510465
La	0.49862445	0.8126163	0.7816676
La	0.50247675	0.8059342	0.90606285
La	0.5007981	0.9074825	0.032998
La	0.5001413	0.90402185	0.15686615
La	0.4985976	0.90546075	0.2801286
La	0.49836485	0.90517005	0.40413545
La	0.49912615	0.904251	0.5294908
La	0.4995263	0.90491105	0.6561504
La	0.4995853	0.9057011	0.7809783
La	0.50065045	0.90455935	0.90756825
La	0.5997204	0.00315465	0.0313774
La	0.5990587	0.00407295	0.1572096
La	0.59935035	0.00503775	0.2814056
La	0.59843775	0.00427625	0.40584305
La	0.5978161	0.0061756	0.5316708
La	0.59834515	0.0036898	0.65615455
La	0.59927065	0.0019438	0.77855855
La	0.5994052	0.0035877	0.9068394
La	0.60091035	0.1036512	0.0320413
La	0.6008657	0.10396895	0.1568691
La	0.59935225	0.10479215	0.28181715
La	0.6001187	0.1021437	0.4053469
La	0.59757355	0.10419975	0.5307005
La	0.6008719	0.1052934	0.657133
La	0.5998649	0.10317185	0.7814096
La	0.6002994	0.1027665	0.9074546
La	0.60713835	0.21769255	0.0337544
La	0.600503	0.20436085	0.1574829
La	0.59988375	0.20515695	0.2827572
La	0.59880255	0.2044277	0.4072617
La	0.60043065	0.20705835	0.52985535
La	0.59884165	0.20855095	0.6549202
La	0.6006367	0.20726085	0.7815421
La	0.60475155	0.2070918	0.90489595
La	0.6058852	0.3122655	0.03248545
La	0.60389775	0.30975115	0.15552535
La	0.60071365	0.30402	0.28249335
La	0.60331125	0.318721	0.4034375
La	0.6016293	0.30836085	0.52995665
La	0.60314725	0.3116695	0.6560715
La	0.602427	0.30813955	0.779698
La	0.60387725	0.30814255	0.90587855
La	0.60053195	0.40537915	0.0314278
La	0.5983967	0.4061471	0.1554953
La	0.5993613	0.4079761	0.28017505
La	0.5990762	0.4078336	0.40682205
La	0.59897905	0.4048439	0.5298976
La	0.6000967	0.40487335	0.65654965
La	0.60001965	0.4049666	0.781245
La	0.59962625	0.40512845	0.9046549
La	0.6011463	0.5048662	0.0315204
La	0.60104825	0.5060817	0.1557904
La	0.6001995	0.50245395	0.28201765
La	0.5983372	0.5047111	0.40609875
La	0.59870565	0.5010183	0.5296172
La	0.60026735	0.5028823	0.65779445
La	0.6001693	0.50298995	0.78167245
La	0.60025535	0.50436345	0.9069132
La	0.5969714	0.60629585	0.0319838
La	0.5994001	0.606659	0.1570097
La	0.59910295	0.60343835	0.28116475
La	0.6015166	0.60388025	0.40581575
La	0.59790265	0.60273335	0.5315738
La	0.5989849	0.599385	0.658229
La	0.6015093	0.60217855	0.78213245
La	0.60085545	0.6021381	0.9073131
La	0.6023413	0.70617975	0.0309111
La	0.60051905	0.70503075	0.1556518
La	0.6006864	0.70737025	0.2802715
La	0.59885305	0.70775375	0.40389455
La	0.595629	0.7097544	0.53014265
La	0.59809035	0.70464065	0.65595425
La	0.60348675	0.70457475	0.78185235
La	0.60146055	0.7036839	0.9067063
La	0.6004752	0.8079295	0.03184315
La	0.6005608	0.8072898	0.15528715
La	0.59798015	0.8068487	0.2796942
La	0.59713975	0.80711395	0.40476865
La	0.5961286	0.808378	0.52672865
La	0.5950022	0.80572455	0.65580645
La	0.5997754	0.8069856	0.78272465
La	0.6004479	0.8060765	0.9070512
La	0.59779055	0.9060521	0.0313639
La	0.59811845	0.9049355	0.1567405
La	0.5976852	0.90474215	0.2811282
La	0.59869595	0.90521155	0.4051921
La	0.59701055	0.9060694	0.52925925
La	0.59669155	0.90639505	0.6545359
La	0.5998951	0.9050468	0.7807045
La	0.59923955	0.90442415	0.9069361
La	0.698595	0.00534965	0.03253495
La	0.69772345	0.0054479	0.15744605
La	0.69774145	0.00616305	0.28112285
La	0.6966192	0.0038474	0.4052256
La	0.6968555	0.0052431	0.53163225
La	0.6972189	0.00537555	0.6555592
La	0.69923805	0.00462625	0.7827636
La	0.70023295	0.00336565	0.9067556
La	0.70005195	0.10401415	0.03261755
La	0.6992632	0.10431465	0.15728805
La	0.6989963	0.1047333	0.2817391
La	0.6970972	0.1040314	0.40542715
La	0.6988712	0.10411175	0.5326025
La	0.700355	0.10585635	0.65725725
La	0.70010365	0.1038177	0.78228335
La	0.70096985	0.1043128	0.90510685
La	0.7097881	0.214617	0.0319371
La	0.7017094	0.2041027	0.15685475
La	0.7000281	0.2049633	0.2819731
La	0.69798	0.20474075	0.4052935
La	0.69882315	0.2053396	0.531277
La	0.6994251	0.2072951	0.6577959
La	0.70159065	0.20579965	0.7823708
La	0.70423665	0.20832535	0.9080102
La	0.7020474	0.30522635	0.0306447
La	0.70179955	0.30574075	0.15591095
La	0.69898825	0.3053356	0.2820049
La	0.69945925	0.3056949	0.40587785
La	0.70017135	0.3075798	0.5311369
La	0.6992744	0.3067266	0.6566805
La	0.7018526	0.3056411	0.78152075
La	0.70233475	0.30537915	0.9051888
La	0.69977135	0.40485415	0.030515
La	0.69905055	0.40526035	0.1563801
La	0.7007832	0.4039996	0.28138495
La	0.69885485	0.4058217	0.40495075
La	0.69999525	0.40402775	0.531061
La	0.7001143	0.4060019	0.6582054
La	0.70186775	0.40489475	0.7809259
La	0.7012846	0.40481665	0.90667145
La	0.70033885	0.5046045	0.0308373
La	0.69811305	0.50356915	0.15566045
La	0.69923135	0.50362045	0.2812793
La	0.701038	0.50112365	0.405195
La	0.69963185	0.500869	0.53135725
La	0.7002334	0.50182395	0.65731785
La	0.7000059	0.5029797	0.7820993
La	0.7004252	0.5028627	0.9058301
La	0.70093945	0.6039223	0.03205945
La	0.7007366	0.6048222	0.1559329
La	0.6999105	0.60420195	0.281433
La	0.69844395	0.60289725	0.40646375
La	0.6999464	0.599327	0.53110265
La	0.70034325	0.60338035	0.65717915
La	0.7073913	0.60677315	0.78197325
La	0.7015535	0.60223255	0.9076963
La	0.7014163	0.70472955	0.03220565
La	0.6994146	0.70441785	0.1564594
La	0.69889655	0.7065203	0.2806517
La	0.6988255	0.7055558	0.40515025
La	0.69753515	0.7077003	0.52624145
La	0.70127405	0.70411625	0.65578245
La	0.70106915	0.70451565	0.7836509
La	0.70043935	0.7054428	0.90671985
La	0.69875755	0.8045444	0.03166845
La	0.6984963	0.80681755	0.1556603
La	0.698433	0.8044793	0.2801169
La	0.6977696	0.8066094	0.40294955
La	0.69613785	0.80895745	0.5286391
La	0.70684675	0.81681825	0.65170645
La	0.70033565	0.8063251	0.78349515
La	0.70007755	0.8053558	0.90721695
La	0.6981364	0.9058036	0.0322425
La	0.69798585	0.90521785	0.1557054
La	0.69689945	0.905455	0.28071305
La	0.6954358	0.9068006	0.40431375
La	0.6948374	0.907427	0.5291593
La	0.69785615	0.90476205	0.65585975
La	0.6989307	0.90587795	0.78197795
La	0.69769385	0.90801885	0.90697975
La	0.79712165	0.00483055	0.03116685
La	0.796181	0.00496825	0.1561846
La	0.7952457	0.00600815	0.280079
La	0.79574745	0.0058962	0.40575435
La	0.7964298	0.0062799	0.5295215
La	0.7968661	0.00519175	0.65519695
La	0.79986505	0.0042787	0.78187875
La	0.79949155	0.00419005	0.9064382
La	0.80101875	0.1048741	0.03005925
La	0.7974293	0.10494915	0.15589165
La	0.7977518	0.1047544	0.28021725
La	0.79718805	0.1038219	0.40735885
La	0.79940175	0.105523	0.53198245
La	0.80034845	0.10400035	0.65770385
La	0.80111055	0.10467645	0.7831175
La	0.80030405	0.1042408	0.90767915
La	0.8003286	0.2048277	0.03002915
La	0.79928845	0.20524025	0.1554621
La	0.7991894	0.20458995	0.2812662
La	0.7982299	0.20472735	0.40417945
La	0.7998684	0.2056383	0.53209335
La	0.80023445	0.20579165	0.65696285
La	0.80184355	0.2063992	0.7807006
La	0.8008545	0.20564815	0.90622585
La	0.80097845	0.3062003	0.0314705
La	0.80213135	0.30645645	0.1558144
La	0.79986435	0.304908	0.28055955
La	0.79937885	0.30602625	0.40588975
La	0.7989858	0.3068948	0.52939645
La	0.7998714	0.30513525	0.65683435
La	0.80097025	0.3067364	0.78056665
La	0.80126885	0.30575975	0.90503595
La	0.79890655	0.4058926	0.031568
La	0.7990661	0.4063658	0.1558783
La	0.799349	0.4045282	0.28173745
La	0.7988376	0.4055924	0.40638935
La	0.7991757	0.4057573	0.53232635
La	0.8001529	0.4063156	0.6562881
La	0.79931375	0.40590945	0.7819563
La	0.80099605	0.40494045	0.90501635
La	0.7989308	0.5045237	0.0300033
La	0.8031525	0.5070548	0.157834
La	0.809476	0.5152321	0.27949885
La	0.7986309	0.5040644	0.40564645
La	0.80037145	0.5029798	0.53299515
La	0.79977485	0.50370335	0.657223
La	0.79968075	0.50428665	0.7818584
La	0.8004148	0.5044021	0.9061154
La	0.80020535	0.6037127	0.031163
La	0.7975503	0.60469095	0.15615425
La	0.7977381	0.60377245	0.2807057
La	0.7980594	0.6031158	0.4069832
La	0.8013242	0.60242025	0.5313093
La	0.80936895	0.61078405	0.66128495
La	0.8011074	0.60419835	0.7824548
La	0.80024975	0.603922	0.9065924
La	0.80062495	0.7050279	0.0306361
La	0.79960915	0.7046939	0.1563333
La	0.79710535	0.7048532	0.28317055
La	0.79821045	0.7058801	0.40666895
La	0.79921235	0.70250745	0.5313773
La	0.8003266	0.70408605	0.65726255
La	0.80192055	0.7033585	0.7835391
La	0.80045375	0.70474705	0.90716995
La	0.7988207	0.80593985	0.03134045
La	0.7982678	0.80654935	0.1544864
La	0.79625545	0.8064234	0.27813875
La	0.79858685	0.8063162	0.4045674
La	0.79872275	0.8032859	0.528708
La	0.80012465	0.80599765	0.65657905
La	0.80042605	0.8069093	0.7836592
La	0.80053335	0.8040748	0.90574985
La	0.79892655	0.90526095	0.02951915
La	0.794531	0.9061761	0.1559048
La	0.79479035	0.9058121	0.2800106
La	0.79712235	0.9059951	0.40365265
La	0.79651245	0.9034514	0.5296805
La	0.7975363	0.9041037	0.65829505
La	0.7999157	0.9054732	0.7824021
La	0.79914725	0.9057125	0.90758165
La	0.89992315	0.00380945	0.03206015
La	0.89628255	0.00387385	0.15393845
La	0.89739905	0.00450185	0.2796082
La	0.897431	0.00454435	0.40252195
La	0.89814495	0.0032037	0.5333365
La	0.90568265	0.0084983	0.6551514
La	0.90043565	0.00446605	0.78246625
La	0.8993431	0.0054043	0.9071961
La	0.8997976	0.104756	0.0296902
La	0.89813365	0.10385715	0.15613045
La	0.89718055	0.10486005	0.2797777
La	0.8963795	0.1041055	0.4061757
La	0.90102045	0.10733125	0.531822
La	0.89869485	0.1026034	0.65709055
La	0.9020167	0.1053466	0.7826813
La	0.9010692	0.10418355	0.9055509
La	0.8993027	0.20339965	0.0312483
La	0.89706565	0.204154	0.1547697
La	0.8976248	0.20282825	0.2809913
La	0.89888045	0.20207405	0.40738755
La	0.90017405	0.2052566	0.5313546
La	0.90003395	0.2076458	0.6573345
La	0.90021095	0.20605805	0.78168555
La	0.90028775	0.2055719	0.9055622
La	0.89906755	0.3041643	0.03001945
La	0.9037004	0.3179743	0.15507535
La	0.8984916	0.30604665	0.2804751
La	0.89913035	0.3051525	0.4050104
La	0.89988125	0.3057984	0.53267535
La	0.89934915	0.3050846	0.6572419
La	0.90003205	0.3052606	0.7814606
La	0.8989968	0.30449465	0.9052188
La	0.8991072	0.4037597	0.03108705
La	0.89920965	0.40522355	0.1543121
La	0.90024975	0.4049117	0.28095645
La	0.9013442	0.40683125	0.40632125
La	0.9004367	0.4049825	0.53170365
La	0.9004115	0.4047046	0.6566541
La	0.90128285	0.4050763	0.78156275
La	0.89993685	0.40556155	0.9062361
La	0.89789845	0.50401535	0.03035985
La	0.8979966	0.5041325	0.1548127
La	0.89734055	0.5033164	0.27969235
La	0.89866175	0.50235235	0.40748115
La	0.8986579	0.5038731	0.53326705
La	0.9003528	0.5037393	0.65736435
La	0.9007443	0.5039198	0.7818951
La	0.89948545	0.5035087	0.90503415
La	0.8992436	0.60370495	0.0290218
La	0.8969703	0.60540165	0.1564534
La	0.89763545	0.6049761	0.2794907
La	0.89957765	0.60148835	0.4053438
La	0.9007748	0.60370945	0.5324228
La	0.9000678	0.60360805	0.65894905
La	0.90111565	0.6026924	0.7816523
La	0.90009885	0.6043125	0.9059362
La	0.89741935	0.70394665	0.0311526
La	0.8973864	0.704753	0.15380455
La	0.90934135	0.7177552	0.28062065
La	0.89855175	0.7053615	0.40606045
La	0.89919145	0.70505415	0.53424925
La	0.8997549	0.70296555	0.656657
La	0.9009962	0.70400045	0.782154
La	0.8982604	0.70360955	0.90771605
La	0.89909065	0.8061992	0.029721
La	0.89849105	0.80558935	0.15442075
La	0.89696465	0.80800295	0.2825878
La	0.8983247	0.8063653	0.40184795
La	0.90029195	0.80691415	0.5338769
La	0.9010614	0.80402815	0.65779935
La	0.9010385	0.80702595	0.78132805
La	0.90054575	0.80507865	0.9061367
La	0.89595185	0.9057883	0.0316054
La	0.89581065	0.9052478	0.15547435
La	0.8943882	0.9118897	0.28197715
La	0.8949835	0.90676865	0.40439985
La	0.8987836	0.90389535	0.5297883
La	0.9027976	0.90673085	0.6566623
La	0.9005524	0.90488795	0.78381935
La	0.90017695	0.9047672	0.90627375
La	0.999154	0.005136	0.02923775
La	0.9986879	0.0036781	0.15781675
La	0.9994515	0.0048183	0.2804112
La	0.99769025	0.00515305	0.4055849
La	0.00143755	0.0040247	0.53082835
La	0.00136165	0.0033279	0.6569683
La	0.0006724	0.00370815	0.7809678
La	0.00630035	0.01143775	0.90601405
La	0.9981966	0.10490915	0.03015555
La	0.9959851	0.10446875	0.1565545
La	0.99836265	0.1036439	0.28102475
La	0.9977896	0.10393815	0.4055208
La	0.00337395	0.1083642	0.5313047
La	0.0017373	0.10388535	0.65797015
La	0.99935545	0.10322205	0.78171
La	0.9985292	0.10473325	0.9064686
La	0.9984286	0.2057824	0.02924265
La	0.9967755	0.20695885	0.15429705
La	0.9961271	0.20444365	0.2798899
La	0.98907265	0.216294	0.40904095
La	0.99885755	0.20579145	0.5320239
La	0.999405	0.2049401	0.658146
La	0.99854935	0.20438475	0.78236855
La	0.9983308	0.2053193	0.90561805
La	0.9985075	0.3078767	0.02916255
La	0.0058182	0.31469925	0.1547593
La	0.99854755	0.3082731	0.2797371
La	0.00079085	0.3099866	0.40635745
La	0.99592185	0.315768	0.5358028
La	0.99970605	0.30547085	0.65726025
La	0.99873585	0.30583005	0.7814914
La	0.99793015	0.3046412	0.9061285
La	0.9993851	0.40383605	0.0298065
La	0.9989992	0.4040771	0.1542403
La	0.9989212	0.40538765	0.27995315
La	0.00020295	0.4039187	0.4073665
La	0.00028345	0.40498015	0.5330614
La	0.99942915	0.4057224	0.6570808
La	0.9992848	0.40495885	0.7814403
La	0.9987832	0.4044166	0.9058221
La	0.9994812	0.50459215	0.0297859
La	0.99785305	0.5039656	0.15577455
La	0.99893185	0.50230395	0.28222745
La	0.9981022	0.5029909	0.40434535
La	0.00014885	0.50350895	0.53236805
La	0.0004366	0.50405805	0.65645635
La	0.9993101	0.5046323	0.7821554
La	0.9980999	0.50344265	0.90525885
La	0.9974453	0.60464515	0.03107255
La	0.9966739	0.60299275	0.15541645
La	0.99778445	0.6053013	0.28261345
La	0.99870325	0.60089345	0.406513
La	0.00415235	0.60678225	0.53059515
La	0.9999203	0.6032454	0.6580847
La	0.99897495	0.60339405	0.7814335
La	0.9986949	0.60423705	0.9061946
La	0.99665095	0.70446555	0.0313114
La	0.99735695	0.70400025	0.1575585
La	0.99918645	0.70525735	0.2827452
La	0.9984134	0.71608445	0.4096974
La	0.0014389	0.70518905	0.53492075
La	0.9998009	0.70407475	0.65853785
La	3.12E-05	0.7033949	0.78150565
La	0.9987826	0.70388035	0.90552585
La	0.99860385	0.8052436	0.0297178
La	0.9977834	0.80571765	0.15507325
La	0.00298265	0.81849785	0.28009355
La	0.0041828	0.81181275	0.40608285
La	0.99778515	0.80849285	0.53077305
La	0.00213535	0.8051896	0.65654025
La	0.0002736	0.80412885	0.78213495
La	0.9977037	0.8045214	0.90634685
La	0.9987128	0.90658305	0.0309284
La	0.9997883	0.9061866	0.15431045
La	0.0001544	0.90605925	0.2796301
La	0.0044184	0.9079978	0.4070028
La	0.00451495	0.9057234	0.53079355
La	0.00313765	0.9046139	0.65782375
La	0.00033335	0.9048978	0.78038725
La	0.9996977	0.90500155	0.9061745
La	0.0477812	0.04451905	0.091209
La	0.04759635	0.043894	0.2181274
La	0.05081265	0.04564535	0.34170585
La	0.0507773	0.04496925	0.46909465
La	0.04995455	0.0433597	0.5952805
La	0.04985775	0.0455927	0.71849465
La	0.04890235	0.0450049	0.8442698
La	0.048304	0.04549815	0.96695995
La	0.04770625	0.14437255	0.09285745
La	0.04734365	0.14506455	0.21790135
La	0.0465924	0.1454298	0.34291635
La	0.0514552	0.14327215	0.47009915
La	0.05039735	0.1459307	0.5969178
La	0.04842815	0.146197	0.7204493
La	0.0480068	0.14502305	0.84376685
La	0.04751705	0.144728	0.9684261
La	0.04574935	0.24320495	0.09208855
La	0.0449595	0.2361666	0.21840465
La	0.04707505	0.2461747	0.34240115
La	0.04498575	0.24300885	0.47074725
La	0.049897	0.243895	0.59669455
La	0.04868645	0.2450236	0.7203398
La	0.04768355	0.24668665	0.8440041
La	0.04577845	0.244332	0.96828845
La	0.0483806	0.34620645	0.0931296
La	0.04211935	0.34145335	0.2180012
La	0.04737955	0.34367865	0.34298625
La	0.04724755	0.3436417	0.4694744
La	0.05014305	0.3461917	0.5946741
La	0.0476763	0.344782	0.72022505
La	0.04936725	0.3457893	0.8423626
La	0.0462033	0.34686705	0.96769785
La	0.04867075	0.4470596	0.091814
La	0.04713275	0.44583675	0.21665175
La	0.0523305	0.42358415	0.3361389
La	0.04856685	0.4446264	0.4696561
La	0.04850345	0.44603645	0.59459555
La	0.04836125	0.4463135	0.71848465
La	0.04937325	0.44601495	0.8439591
La	0.0494989	0.4460519	0.9672592
La	0.04795285	0.5440017	0.09160885
La	0.04909005	0.54425785	0.2171377
La	0.05010225	0.54355265	0.3457176
La	0.049462	0.54463315	0.46978495
La	0.0491986	0.5458488	0.59470745
La	0.0484812	0.5452809	0.71899315
La	0.0482635	0.54447845	0.8429707
La	0.0477968	0.54452455	0.9670726
La	0.0451907	0.6436799	0.0915834
La	0.0438026	0.6428867	0.21777055
La	0.04619375	0.6392109	0.3440497
La	0.0470592	0.644353	0.469729
La	0.0485042	0.6428689	0.5945005
La	0.04890005	0.6446501	0.7192775
La	0.04789375	0.6436865	0.84473485
La	0.04667515	0.64407555	0.967478
La	0.0486198	0.74289915	0.0923336
La	0.04520695	0.74493135	0.21865475
La	0.04723635	0.7452109	0.34698725
La	0.0495871	0.7446856	0.4706706
La	0.0498598	0.74419185	0.5965483
La	0.04747675	0.74395955	0.71966185
La	0.0475228	0.74430395	0.844047
La	0.0489028	0.74354355	0.9673153
La	0.0474377	0.84648095	0.0917527
La	0.0498154	0.846535	0.22155285
La	0.0531968	0.84791045	0.34241775
La	0.0514849	0.8462067	0.47125435
La	0.0540942	0.8458979	0.59378935
La	0.0507004	0.84565715	0.71934475
La	0.04801025	0.8456885	0.84332025
La	0.0488174	0.8463121	0.9675569
La	0.04821055	0.94582425	0.0924026
La	0.05045395	0.9459808	0.218927
La	0.05048215	0.9475406	0.3438703
La	0.05435765	0.9467659	0.46918675
La	0.0517749	0.9459737	0.5954342
La	0.05218335	0.94679105	0.7196031
La	0.0503293	0.9461927	0.8445926
La	0.0485176	0.94558545	0.9684958
La	0.149314	0.04459575	0.0941843
La	0.151092	0.04369455	0.2188879
La	0.15176805	0.0437407	0.34304995
La	0.1495058	0.0437021	0.46977925
La	0.1521003	0.04520425	0.59447605
La	0.1492561	0.04396595	0.71936285
La	0.1465837	0.0433958	0.8449743
La	0.1477556	0.0435836	0.96826195
La	0.1482635	0.14305375	0.0937798
La	0.1490984	0.14204965	0.22036765
La	0.1511162	0.1405766	0.344307
La	0.15119445	0.1406767	0.4683669
La	0.15098055	0.1423313	0.59444585
La	0.1472943	0.14385155	0.71903975
La	0.146756	0.1441091	0.8436415
La	0.14606095	0.14418715	0.96805615
La	0.14361945	0.24409725	0.0929413
La	0.14554145	0.24316455	0.2177026
La	0.1479978	0.24588075	0.3432882
La	0.14688065	0.2446345	0.46935045
La	0.14632785	0.2454964	0.59511535
La	0.14751815	0.24413555	0.71920785
La	0.1471156	0.2449713	0.84331265
La	0.1448275	0.24332625	0.97126685
La	0.14698095	0.34872035	0.09115395
La	0.1466637	0.34658975	0.2160963
La	0.1482873	0.34473255	0.34390765
La	0.146593	0.3458013	0.46954755
La	0.14874115	0.3465297	0.596121
La	0.14956555	0.3457761	0.71788895
La	0.1459289	0.34632665	0.84269335
La	0.1457155	0.3459359	0.96717785
La	0.1487227	0.4472154	0.09238195
La	0.14818515	0.44644175	0.2188404
La	0.14849525	0.44498015	0.3450296
La	0.1478894	0.4456643	0.46923815
La	0.15043535	0.4465191	0.59400125
La	0.1481011	0.4453669	0.7201603
La	0.14714465	0.44640165	0.84239305
La	0.14832635	0.4461491	0.96720915
La	0.14768575	0.54423745	0.09120995
La	0.14827245	0.5429319	0.21688685
La	0.1500217	0.54426135	0.34551725
La	0.14784475	0.54301025	0.47069755
La	0.14855495	0.5451553	0.5934723
La	0.14800395	0.54532085	0.7195913
La	0.14887255	0.54484585	0.8423747
La	0.1474485	0.5437195	0.9666989
La	0.1590912	0.63144645	0.09212575
La	0.14663245	0.6423591	0.21824075
La	0.14876025	0.6429833	0.3473216
La	0.14738195	0.64344695	0.4701812
La	0.14923115	0.64296695	0.5951797
La	0.1467385	0.6415316	0.7192749
La	0.14889195	0.64338855	0.84252465
La	0.1450485	0.64365175	0.96915325
La	0.1472065	0.74343795	0.0909575
La	0.14845805	0.74455985	0.2194043
La	0.1465419	0.74426535	0.34562325
La	0.15284115	0.7462689	0.46945235
La	0.14998875	0.74426695	0.59564615
La	0.1476586	0.7435997	0.71826865
La	0.1467487	0.74348065	0.84411865
La	0.145297	0.7431379	0.9693554
La	0.14962345	0.8460547	0.0920927
La	0.14991705	0.84651395	0.22089385
La	0.1518706	0.8483457	0.3461628
La	0.15157165	0.8461071	0.47114085
La	0.1514879	0.84656225	0.5960816
La	0.1488403	0.8450333	0.72002155
La	0.1477512	0.8446765	0.84476295
La	0.149666	0.8450246	0.96938395
La	0.1497823	0.9465408	0.09128555
La	0.1511482	0.9459364	0.21848235
La	0.1515181	0.9456333	0.34343885
La	0.1550308	0.9454583	0.46888255
La	0.1520991	0.94545295	0.5939339
La	0.15114755	0.94471225	0.7184236
La	0.14957465	0.94657375	0.8443165
La	0.1494441	0.9449438	0.96781765
La	0.2493891	0.04572735	0.09379
La	0.25116455	0.04233155	0.21838905
La	0.25192755	0.04391435	0.3442003
La	0.252418	0.0439047	0.46826745
La	0.24983245	0.04473005	0.59500795
La	0.24872915	0.04544145	0.71810095
La	0.24952105	0.0440121	0.8425597
La	0.2491937	0.04420345	0.96929605
La	0.2559688	0.13521185	0.0970498
La	0.2529239	0.14118855	0.2210853
La	0.2505916	0.14236705	0.3450517
La	0.2512975	0.13838595	0.4691177
La	0.25181245	0.13721625	0.5949816
La	0.24719895	0.1441253	0.7178358
La	0.24722775	0.1397859	0.84399785
La	0.24520605	0.14231805	0.97128175
La	0.24580025	0.2429771	0.09445735
La	0.2486932	0.243811	0.2218741
La	0.247952	0.24636585	0.34265905
La	0.24738585	0.2439364	0.46991565
La	0.2469434	0.24496735	0.59443985
La	0.2446372	0.2438621	0.72100035
La	0.24992675	0.2363265	0.8430512
La	0.2439057	0.2420725	0.96933905
La	0.2467931	0.34734335	0.09364805
La	0.24717715	0.3468488	0.21813995
La	0.24877955	0.34621365	0.3434475
La	0.246697	0.34471535	0.47094705
La	0.2464183	0.3459747	0.59264935
La	0.2457428	0.3459977	0.71846225
La	0.24788195	0.34630015	0.8429365
La	0.24585375	0.3462774	0.96772725
La	0.24927635	0.4481183	0.09159745
La	0.2502463	0.44492785	0.2173367
La	0.25110565	0.4459554	0.3439868
La	0.2496057	0.4474798	0.4696453
La	0.24865995	0.44571735	0.5930607
La	0.256366	0.43962195	0.7200553
La	0.24805515	0.44652325	0.84115275
La	0.24973365	0.44719875	0.96595445
La	0.2476124	0.5440276	0.0939611
La	0.2503554	0.54484475	0.2176601
La	0.25038305	0.54368785	0.3455762
La	0.2500503	0.5464515	0.4698874
La	0.24695495	0.5438222	0.59237525
La	0.2477499	0.54357415	0.71769085
La	0.24774345	0.54477265	0.8443378
La	0.24803205	0.54423105	0.96683445
La	0.24440665	0.64331645	0.09526535
La	0.2480352	0.6441342	0.22014935
La	0.25014995	0.6409907	0.34405775
La	0.24840825	0.64480385	0.46855685
La	0.2457456	0.64261865	0.5926855
La	0.2454985	0.64258195	0.719778
La	0.2447097	0.645451	0.84254015
La	0.2470541	0.643014	0.9673991
La	0.24480035	0.7441909	0.09432665
La	0.2488988	0.7460256	0.22141815
La	0.24998105	0.7450759	0.3454317
La	0.2497633	0.7448135	0.46965835
La	0.24680845	0.74384315	0.592859
La	0.2455682	0.74493465	0.71955285
La	0.24683015	0.745349	0.8445192
La	0.2479445	0.74472665	0.96877345
La	0.2497552	0.85001975	0.0907713
La	0.25048765	0.84941845	0.21804505
La	0.2518484	0.84784425	0.34351535
La	0.2505348	0.8480712	0.46932065
La	0.2497384	0.8489059	0.5933682
La	0.2492766	0.84577255	0.71939975
La	0.2483399	0.8478178	0.8420297
La	0.2500796	0.84801965	0.96736545
La	0.25066185	0.94750435	0.09389065
La	0.2512805	0.9465817	0.2189904
La	0.25154485	0.9460996	0.34401845
La	0.2514288	0.9470256	0.46867985
La	0.2495515	0.9444538	0.59517875
La	0.2499862	0.946789	0.7188934
La	0.2484753	0.9476814	0.844073
La	0.2497248	0.9483453	0.96850535
La	0.35153265	0.04427825	0.0949447
La	0.34982735	0.04313525	0.2180712
La	0.35006295	0.04412695	0.3447807
La	0.3499431	0.0437604	0.46840705
La	0.3493644	0.04450855	0.5919045
La	0.34948425	0.04382665	0.71824965
La	0.3496712	0.04317635	0.84508895
La	0.348932	0.0438156	0.9691069
La	0.3525515	0.1411242	0.0938067
La	0.35282995	0.14217325	0.22080815
La	0.35210775	0.1407813	0.34235895
La	0.3505599	0.1418764	0.46852325
La	0.35042795	0.14104685	0.5938674
La	0.34548425	0.1406412	0.71726935
La	0.3513437	0.1358544	0.84411335
La	0.3470744	0.1393226	0.9685883
La	0.34351565	0.24156545	0.09610495
La	0.34699845	0.24344575	0.2198848
La	0.3523634	0.2423945	0.34289405
La	0.35559655	0.23664875	0.4693242
La	0.3459732	0.24405935	0.5934691
La	0.34649155	0.24541205	0.7183039
La	0.3430965	0.2442853	0.84380315
La	0.34736745	0.24520605	0.96780225
La	0.34817855	0.34649205	0.09431465
La	0.3498486	0.3452353	0.2172825
La	0.34364865	0.3314862	0.3471781
La	0.35347115	0.3449266	0.4677449
La	0.34893545	0.34672075	0.5943824
La	0.34637	0.34502725	0.71936945
La	0.3471105	0.34752455	0.84204495
La	0.35034325	0.3467912	0.967857
La	0.3477962	0.44589245	0.0954151
La	0.3496923	0.4483531	0.21861585
La	0.35066	0.44838245	0.34430305
La	0.35065815	0.44594755	0.46921915
La	0.34950805	0.4468213	0.59326315
La	0.34784835	0.4456591	0.71851825
La	0.34839475	0.4465678	0.8438276
La	0.348448	0.44838355	0.9671304
La	0.3484873	0.5457755	0.09324715
La	0.34884455	0.54453735	0.21800795
La	0.34896475	0.5443491	0.3444658
La	0.3475246	0.54450115	0.46993235
La	0.3489974	0.54322295	0.59345455
La	0.3473102	0.54459995	0.71813875
La	0.34617075	0.54447115	0.8417662
La	0.3473936	0.54424265	0.96792445
La	0.3494252	0.64277175	0.09489565
La	0.35109035	0.6414339	0.2213749
La	0.35123735	0.64140025	0.345818
La	0.34941765	0.6416386	0.4703404
La	0.34858935	0.64124055	0.59231085
La	0.3487085	0.6394902	0.7179464
La	0.3450356	0.64408645	0.84454905
La	0.3488853	0.64193425	0.9700597
La	0.34805525	0.7427052	0.0955528
La	0.3534696	0.742114	0.22053685
La	0.3499625	0.7446396	0.3446435
La	0.3479434	0.7446903	0.46836875
La	0.3489367	0.7435433	0.59250495
La	0.3479937	0.74573045	0.7192109
La	0.3455372	0.74448325	0.84155555
La	0.34630245	0.74395745	0.96844435
La	0.34921075	0.8506237	0.095007
La	0.3501112	0.84753145	0.2187735
La	0.349484	0.84767265	0.34380255
La	0.3485963	0.84898845	0.46854325
La	0.3473751	0.84680095	0.5942383
La	0.34897735	0.8485524	0.71908235
La	0.3492452	0.85204295	0.844558
La	0.3492386	0.84783895	0.9682335
La	0.3508189	0.9467591	0.0939682
La	0.3516185	0.9459822	0.21857525
La	0.3495001	0.947818	0.34335315
La	0.3493668	0.94729435	0.4678524
La	0.3487481	0.9466102	0.5940425
La	0.3490705	0.9457672	0.71820675
La	0.34933505	0.94723945	0.84268915
La	0.35001745	0.9474775	0.96900755
La	0.45070505	0.0452389	0.0940239
La	0.4505784	0.0443339	0.21898485
La	0.44919	0.0421457	0.34303225
La	0.4489997	0.04499925	0.4676162
La	0.44847175	0.04413955	0.5920915
La	0.44790455	0.0437251	0.7162337
La	0.44951955	0.0426678	0.8434214
La	0.44978185	0.0440147	0.9683945
La	0.45205665	0.1420416	0.09429105
La	0.4515275	0.14116145	0.22026075
La	0.4489726	0.14275975	0.34496605
La	0.4485208	0.14248735	0.4694879
La	0.44897905	0.1445806	0.5928931
La	0.44715185	0.1399125	0.71857115
La	0.4478754	0.1393029	0.84380905
La	0.44688755	0.1397668	0.9699978
La	0.44427905	0.241958	0.094883
La	0.45334295	0.237654	0.22048215
La	0.45394685	0.23956105	0.3446488
La	0.45444335	0.2356666	0.4697332
La	0.4504867	0.2448559	0.5922872
La	0.4484487	0.2422197	0.7212394
La	0.449033	0.2450306	0.8423909
La	0.4506849	0.2445711	0.967606
La	0.44851525	0.3505284	0.094814
La	0.4497653	0.34597135	0.2188126
La	0.44821115	0.345922	0.34433275
La	0.44936595	0.34639085	0.4698124
La	0.44918645	0.35048915	0.5930419
La	0.44873395	0.34722885	0.717927
La	0.44815875	0.35065355	0.84154765
La	0.4498894	0.3534024	0.968299
La	0.44836035	0.44832245	0.0919427
La	0.4482412	0.45007655	0.21919455
La	0.4488912	0.4468623	0.3426604
La	0.44983675	0.446771	0.4681694
La	0.4496261	0.44811235	0.5932471
La	0.44824425	0.4477142	0.7180587
La	0.4495784	0.44838365	0.8420201
La	0.4494651	0.44956635	0.9672731
La	0.44945025	0.54532675	0.09260985
La	0.4501042	0.54711275	0.21896285
La	0.44981225	0.54478965	0.34590535
La	0.4485304	0.5463649	0.4696218
La	0.4487784	0.5437921	0.5937795
La	0.4479863	0.5449328	0.7191589
La	0.44859155	0.5447837	0.8456194
La	0.44912405	0.54533315	0.96678385
La	0.4482455	0.64330725	0.0921417
La	0.45077225	0.64466115	0.22010785
La	0.451269	0.64328475	0.344457
La	0.4484957	0.64113345	0.4685502
La	0.44937625	0.64049265	0.59342985
La	0.4481141	0.64393135	0.7182071
La	0.44571355	0.6438028	0.84449225
La	0.4484841	0.6418928	0.9675201
La	0.45185025	0.7448875	0.0960258
La	0.45678265	0.7357019	0.2188044
La	0.449672	0.7437238	0.3454938
La	0.44721455	0.74580375	0.46764155
La	0.44586105	0.7405724	0.5930879
La	0.4467947	0.74390435	0.7172916
La	0.44930805	0.7453912	0.84495015
La	0.4531714	0.7450551	0.96977005
La	0.44962395	0.84590755	0.0933981
La	0.4494256	0.8481171	0.21848745
La	0.4484455	0.8476704	0.34326915
La	0.44899275	0.848801	0.46687075
La	0.44928145	0.84942745	0.59174335
La	0.44842105	0.84830555	0.71916365
La	0.4486421	0.8487028	0.84345525
La	0.4483277	0.84514505	0.9705154
La	0.4492982	0.94571995	0.0944916
La	0.44865985	0.94698125	0.2186574
La	0.4503826	0.94689485	0.34305435
La	0.4482258	0.94623835	0.46854345
La	0.4474367	0.94700465	0.5935586
La	0.44963545	0.9473544	0.71807485
La	0.44734	0.9463383	0.84328095
La	0.44930315	0.94553845	0.9684725
La	0.55053985	0.0447883	0.0952242
La	0.5487559	0.0439631	0.22046175
La	0.5492363	0.04417835	0.3427023
La	0.54686765	0.04355525	0.4668266
La	0.54629795	0.04514185	0.5924569
La	0.5480471	0.0460867	0.71811285
La	0.5491345	0.0454687	0.8447167
La	0.5494363	0.0451776	0.97016655
La	0.5500998	0.14221575	0.09475425
La	0.5510139	0.1422886	0.21884675
La	0.54759095	0.1426927	0.3443648
La	0.54832235	0.14319145	0.46748225
La	0.54875685	0.1424178	0.59216205
La	0.5469565	0.1435916	0.71618835
La	0.5521151	0.1427587	0.84337725
La	0.55208785	0.1419407	0.96821855
La	0.5509209	0.23918285	0.0960272
La	0.55156385	0.23491895	0.21705535
La	0.55088195	0.2405004	0.34559765
La	0.54952745	0.243144	0.46934655
La	0.54896985	0.24434665	0.59554385
La	0.55142205	0.2442456	0.719409
La	0.5490013	0.24396075	0.8449969
La	0.54898025	0.2430228	0.96809235
La	0.5484723	0.34676225	0.0961398
La	0.5500652	0.3424128	0.2157007
La	0.5492964	0.3486142	0.34511525
La	0.54911735	0.346872	0.4678278
La	0.5495128	0.34627735	0.59190585
La	0.5511832	0.34731225	0.7185681
La	0.5502731	0.34609085	0.8448112
La	0.5500635	0.34664405	0.9681123
La	0.54792625	0.44669695	0.0930763
La	0.5489322	0.44719425	0.21932325
La	0.54899325	0.4468042	0.3445716
La	0.5499137	0.4463979	0.4684325
La	0.550645	0.44884815	0.5929393
La	0.54948425	0.4480358	0.72032025
La	0.5491221	0.44703175	0.84407155
La	0.54894545	0.44666765	0.96858595
La	0.5507799	0.54552305	0.09187405
La	0.54931355	0.54503105	0.21891785
La	0.54822515	0.5455817	0.34327715
La	0.548547	0.54472455	0.46839245
La	0.5479999	0.54181195	0.59272965
La	0.55049815	0.5438243	0.7181492
La	0.5491764	0.54495025	0.84376575
La	0.5501188	0.54409695	0.96784145
La	0.5496485	0.6459413	0.0946134
La	0.5525872	0.6360537	0.21884985
La	0.54919925	0.6430127	0.3448201
La	0.5489663	0.6447363	0.469119
La	0.54834635	0.6397885	0.5934174
La	0.54982475	0.64256725	0.71982745
La	0.5515078	0.6431361	0.8452428
La	0.55194895	0.64350005	0.97152055
La	0.550447	0.7450088	0.09358725
La	0.5491906	0.7445674	0.2189165
La	0.54939705	0.74447715	0.3436491
La	0.54863785	0.74640225	0.46574295
La	0.54591625	0.74406805	0.5929556
La	0.54921165	0.7420697	0.71729765
La	0.5500716	0.74497325	0.8459005
La	0.551008	0.74539575	0.96914045
La	0.5472033	0.8458646	0.0940661
La	0.54870785	0.8460174	0.2175911
La	0.54934175	0.84609665	0.3429485
La	0.546478	0.84613895	0.4674622
La	0.54613555	0.84930855	0.5926214
La	0.5484285	0.8475205	0.71814345
La	0.5486622	0.84521195	0.84542805
La	0.54965185	0.8467358	0.9693298
La	0.54819925	0.9464921	0.09431325
La	0.5490877	0.94765265	0.217722
La	0.54799835	0.94583725	0.3424887
La	0.54776065	0.9455531	0.4670577
La	0.5474988	0.9469553	0.59232095
La	0.5478392	0.9474472	0.71785135
La	0.54879315	0.94510545	0.8435373
La	0.5469257	0.94597145	0.9696272
La	0.64813535	0.04495345	0.0932907
La	0.6485651	0.0433194	0.21880315
La	0.64808335	0.04470705	0.34241935
La	0.6462707	0.0438055	0.46753985
La	0.6448976	0.04472945	0.5914861
La	0.64686775	0.04483185	0.71923
La	0.65011155	0.044903	0.84550235
La	0.64940085	0.04460135	0.9690965
La	0.65020475	0.1431565	0.09542335
La	0.64800715	0.14227145	0.21897735
La	0.6475962	0.14384905	0.34375815
La	0.64915055	0.1430748	0.4682003
La	0.64692685	0.14468345	0.59454545
La	0.6486419	0.1445492	0.7194184
La	0.6490411	0.1427942	0.84356385
La	0.65045745	0.1435478	0.96922355
La	0.6519579	0.2420679	0.09228735
La	0.6491436	0.23416245	0.2193121
La	0.65018745	0.23653715	0.3437763
La	0.64721475	0.2428709	0.4685172
La	0.65069515	0.24378145	0.59506945
La	0.6503559	0.24315435	0.7204905
La	0.65107065	0.24426505	0.84378275
La	0.65212755	0.2445934	0.96893015
La	0.65168555	0.3437195	0.09461105
La	0.6488091	0.34549125	0.21867
La	0.64729505	0.3457845	0.34419395
La	0.6512965	0.345627	0.4686609
La	0.6514588	0.34645385	0.5937545
La	0.65102285	0.3457585	0.7188227
La	0.6508529	0.34564155	0.8433064
La	0.65030515	0.34822515	0.96737375
La	0.64843585	0.44584925	0.09343315
La	0.648065	0.4455807	0.2191176
La	0.64802695	0.4464562	0.3428962
La	0.6494105	0.4461517	0.4670434
La	0.64865705	0.44747015	0.59305545
La	0.64928995	0.4454915	0.71920335
La	0.6560931	0.43764575	0.8432556
La	0.64861735	0.44654855	0.96753955
La	0.64981925	0.54556685	0.0942148
La	0.64905785	0.54497095	0.21742395
La	0.64878645	0.54458695	0.3441895
La	0.648041	0.54600285	0.46925275
La	0.6491677	0.54338455	0.59276405
La	0.6497215	0.54466325	0.7198073
La	0.6507138	0.5446533	0.8449869
La	0.65152485	0.5440717	0.96928145
La	0.64947745	0.6443661	0.0927922
La	0.64794285	0.64528655	0.2176606
La	0.6485758	0.64329495	0.3442046
La	0.6477731	0.643178	0.4670223
La	0.64887105	0.6390012	0.5946792
La	0.65273295	0.6399256	0.72067775
La	0.65268225	0.64463715	0.84484195
La	0.6513933	0.64411595	0.96861935
La	0.64918295	0.74391465	0.09328275
La	0.6480935	0.74606775	0.2207919
La	0.64731715	0.7453822	0.3428583
La	0.6495997	0.7465608	0.4677892
La	0.64633395	0.74231185	0.59569145
La	0.6495281	0.74519715	0.7201752
La	0.6500473	0.7431135	0.8431246
La	0.6495876	0.7454909	0.97031075
La	0.6475484	0.846744	0.09257715
La	0.64961935	0.8466214	0.21757475
La	0.64788085	0.84646365	0.34081105
La	0.6454795	0.8496173	0.46669245
La	0.6475142	0.8469634	0.592224
La	0.64712315	0.84880835	0.72053175
La	0.6508372	0.8450855	0.84459885
La	0.648971	0.8452422	0.971474
La	0.64813935	0.94429595	0.0939943
La	0.64813725	0.94533645	0.21838935
La	0.6473923	0.94538525	0.3422622
La	0.6454787	0.9475918	0.46764315
La	0.6451201	0.9471101	0.5921155
La	0.64663545	0.9466722	0.72023255
La	0.6488321	0.9456507	0.84449335
La	0.64775755	0.94638165	0.9694113
La	0.74838485	0.0449469	0.0939196
La	0.7474088	0.04534965	0.21753175
La	0.74717085	0.0449752	0.34329315
La	0.74498985	0.0455881	0.4688685
La	0.74610975	0.0440386	0.59306295
La	0.7488605	0.04498885	0.71736415
La	0.74885695	0.04484805	0.8456063
La	0.748682	0.04640595	0.96856115
La	0.74903555	0.144262	0.0937889
La	0.74907895	0.14470945	0.218123
La	0.74695485	0.14469635	0.3433964
La	0.746728	0.1447954	0.46814525
La	0.7488451	0.145543	0.5945156
La	0.7498541	0.14397765	0.71947315
La	0.75025685	0.1454732	0.84475675
La	0.7502462	0.14413	0.9688069
La	0.75083185	0.24433315	0.09282545
La	0.7488322	0.24568715	0.2176302
La	0.74781915	0.24428215	0.3451369
La	0.7472279	0.24370485	0.4688761
La	0.7500347	0.24558145	0.59392105
La	0.7503479	0.2448503	0.71908815
La	0.7513062	0.24607715	0.84417415
La	0.751544	0.2444796	0.9676631
La	0.7497329	0.3460466	0.0915409
La	0.7478677	0.3447215	0.21933145
La	0.74851505	0.3445073	0.34480465
La	0.74789655	0.3457747	0.46885645
La	0.74965135	0.3463946	0.59424915
La	0.74998185	0.34635705	0.7198732
La	0.74955195	0.34548255	0.8436698
La	0.7515446	0.3463311	0.96753235
La	0.74912675	0.44526745	0.09502925
La	0.74860855	0.44629575	0.2171508
La	0.74991125	0.445812	0.34303795
La	0.7482149	0.44670755	0.46961625
La	0.7490274	0.44679285	0.5937868
La	0.7486063	0.4461791	0.718484
La	0.74961845	0.4462879	0.8440625
La	0.74962025	0.4443902	0.9676073
La	0.7517496	0.5438166	0.0924377
La	0.74724615	0.545411	0.21776885
La	0.74635615	0.5439241	0.3426536
La	0.74975295	0.54276135	0.46774895
La	0.7488846	0.5434353	0.5947204
La	0.74991995	0.54334935	0.72023935
La	0.75091855	0.54395165	0.8437906
La	0.7497015	0.5446679	0.9678751
La	0.74922775	0.6439208	0.09391565
La	0.7467313	0.64493595	0.2181427
La	0.7496588	0.64322335	0.34535915
La	0.7499779	0.6437549	0.4688672
La	0.749746	0.64258975	0.59515755
La	0.7508579	0.6423607	0.71999325
La	0.75198365	0.6433025	0.8452353
La	0.7491271	0.6435387	0.9695338
La	0.74928785	0.74527725	0.09302005
La	0.7476161	0.74482905	0.21862635
La	0.7447147	0.7437591	0.34295145
La	0.7460697	0.7444992	0.46673385
La	0.7483413	0.74149745	0.5939707
La	0.7496283	0.7462399	0.7207309
La	0.7486201	0.74486715	0.84388765
La	0.7504187	0.74459565	0.9697511
La	0.74841495	0.84615155	0.09258205
La	0.7476909	0.8457134	0.21844805
La	0.74749955	0.8464569	0.34210685
La	0.74571125	0.8463679	0.46644075
La	0.74621185	0.8434489	0.5921126
La	0.74902905	0.8437938	0.72284455
La	0.7534747	0.83899815	0.84605965
La	0.74923965	0.84444845	0.9685191
La	0.74884205	0.944945	0.09300575
La	0.74601315	0.94392385	0.2178438
La	0.7483932	0.9452622	0.34173235
La	0.74673525	0.94604245	0.46707035
La	0.7457103	0.94569835	0.5929775
La	0.7478947	0.9474697	0.7202868
La	0.7478037	0.9471918	0.84498135
La	0.7485827	0.94540165	0.9689319
La	0.84798665	0.04525205	0.09217945
La	0.8483111	0.0440086	0.2188094
La	0.84803165	0.04518945	0.3425125
La	0.8460477	0.04483685	0.4672534
La	0.84712915	0.0466665	0.5914903
La	0.85007525	0.0448629	0.72057375
La	0.85047605	0.0449186	0.84460635
La	0.84993245	0.0447198	0.9688061
La	0.84763865	0.1450358	0.09286695
La	0.8470088	0.1448645	0.218142
La	0.8460671	0.14286405	0.34325385
La	0.8471768	0.1446262	0.46874135
La	0.8475402	0.1490182	0.59666185
La	0.8489063	0.14542155	0.71931825
La	0.84977245	0.1463225	0.84571745
La	0.84863155	0.14585855	0.96889005
La	0.84829335	0.24313235	0.09375285
La	0.8480837	0.2441434	0.2187817
La	0.8443393	0.24320935	0.34448485
La	0.8499702	0.244204	0.47020645
La	0.84994965	0.24429345	0.59451575
La	0.8499305	0.2442681	0.72099585
La	0.84832255	0.2448172	0.84371825
La	0.84899355	0.2440411	0.96785205
La	0.8498687	0.34551265	0.09313605
La	0.8487543	0.34605745	0.2182267
La	0.8479483	0.3441521	0.3427239
La	0.84725685	0.3444369	0.4700298
La	0.85028675	0.34570415	0.5933105
La	0.8511269	0.34665335	0.71935
La	0.8495902	0.34578075	0.8432792
La	0.84882315	0.345438	0.96860395
La	0.8484424	0.4451306	0.0925602
La	0.84817005	0.4467539	0.2174038
La	0.8488184	0.4458265	0.34478115
La	0.84978305	0.44619645	0.4702197
La	0.8499607	0.4452213	0.5935248
La	0.85093605	0.43922075	0.71590505
La	0.84915975	0.4455313	0.8436108
La	0.85008365	0.4458552	0.96775065
La	0.84845525	0.54545205	0.09268075
La	0.8468875	0.54604025	0.2189446
La	0.8483528	0.54401235	0.3431484
La	0.8475404	0.5445587	0.46892155
La	0.8489276	0.5450936	0.59661125
La	0.84988495	0.544449	0.71886475
La	0.84847675	0.54511735	0.8438333
La	0.84907865	0.544337	0.9686632
La	0.84849625	0.6456036	0.09400335
La	0.84670805	0.6441136	0.2189248
La	0.8471526	0.6444157	0.3413482
La	0.8481029	0.6426752	0.4663946
La	0.8502872	0.64355215	0.5962081
La	0.85117335	0.6441116	0.71992755
La	0.8516306	0.6432424	0.84356365
La	0.8490176	0.64335695	0.96712935
La	0.8467568	0.74526565	0.09336775
La	0.8474593	0.74552965	0.2173119
La	0.84628145	0.74529065	0.34312155
La	0.846638	0.7443372	0.46830485
La	0.84835435	0.7418664	0.5945036
La	0.84798595	0.7439714	0.7205594
La	0.84974445	0.7443049	0.8449396
La	0.8503264	0.7434586	0.9690167
La	0.84754705	0.84514065	0.0923497
La	0.8472901	0.8452454	0.21667385
La	0.847711	0.84486865	0.3411271
La	0.83974955	0.8302659	0.469414
La	0.8491843	0.8465339	0.59407435
La	0.85136605	0.84478105	0.7212676
La	0.8500603	0.84459985	0.84503205
La	0.8507167	0.8455631	0.96906505
La	0.8475676	0.94535985	0.091283
La	0.8470118	0.94543415	0.21697435
La	0.84844895	0.9460947	0.3419623
La	0.8445777	0.94473355	0.4683281
La	0.84553975	0.94583865	0.5941892
La	0.849033	0.9448685	0.7207793
La	0.849323	0.9454523	0.84608565
La	0.8484081	0.9454627	0.9683781
La	0.9477099	0.0452346	0.0925919
La	0.94795855	0.04490915	0.21691355
La	0.9483068	0.0457684	0.34071755
La	0.94868265	0.0455779	0.4686809
La	0.95023485	0.0457286	0.5967105
La	0.9489593	0.04612565	0.7206217
La	0.94848275	0.0453701	0.8446671
La	0.94794675	0.04550285	0.9679623
La	0.94804415	0.1438976	0.09264475
La	0.94762575	0.14345385	0.21817975
La	0.9457954	0.14339395	0.3426099
La	0.94597335	0.1437298	0.46820715
La	0.9493222	0.14682325	0.59534335
La	0.95006895	0.14463155	0.7201949
La	0.94868365	0.14449405	0.84455545
La	0.9485016	0.1449866	0.96742165
La	0.947991	0.2446528	0.0932528
La	0.94739065	0.2439816	0.2185801
La	0.9466927	0.24406995	0.3437691
La	0.9476873	0.2453083	0.46925515
La	0.949214	0.24561995	0.59512935
La	0.95021245	0.2460399	0.71988365
La	0.94849735	0.2458051	0.8426832
La	0.94825215	0.245732	0.9686379
La	0.9492435	0.3466814	0.09281135
La	0.9484141	0.3459696	0.216183
La	0.9463901	0.3455699	0.34329505
La	0.9475899	0.3453321	0.46969345
La	0.9497619	0.34657045	0.5939232
La	0.9494093	0.3450663	0.71986955
La	0.94920525	0.3450988	0.843345
La	0.95098515	0.34659995	0.96791935
La	0.9489656	0.4445075	0.09293745
La	0.94877775	0.44636585	0.21672715
La	0.94938345	0.44452205	0.3461019
La	0.9493969	0.4459779	0.4703511
La	0.94890845	0.4452765	0.59421895
La	0.94941155	0.44539035	0.7195765
La	0.9486272	0.44520915	0.8442671
La	0.94878675	0.4457344	0.9678664
La	0.9495199	0.5441572	0.0920659
La	0.9495309	0.54573915	0.2186616
La	0.94718245	0.54251735	0.3437269
La	0.94739575	0.54484135	0.46891525
La	0.9496157	0.54478875	0.5960551
La	0.9485169	0.54383585	0.7179367
La	0.9497916	0.54504205	0.8441134
La	0.94864735	0.5452394	0.96908265
La	0.9464073	0.64409435	0.0928788
La	0.94626145	0.6435406	0.21835385
La	0.9502368	0.6396182	0.34263325
La	0.94674685	0.64212735	0.4709875
La	0.95038895	0.6426448	0.5951726
La	0.95048635	0.64411055	0.71906345
La	0.9493847	0.6454995	0.8448508
La	0.94809695	0.64480495	0.96880705
La	0.94804275	0.745374	0.0925127
La	0.9453741	0.72960375	0.2215448
La	0.9455985	0.73310655	0.3431525
La	0.94777875	0.744895	0.4684073
La	0.9487435	0.74066455	0.59587985
La	0.94905225	0.7435998	0.72123855
La	0.9502442	0.7438463	0.8458645
La	0.9479222	0.745184	0.967281
La	0.94900515	0.8463553	0.09262665
La	0.9455505	0.8453971	0.2199222
La	0.95128815	0.84467325	0.34144405
La	0.95034955	0.8460929	0.46948385
La	0.9534265	0.84463035	0.59667665
La	0.9493366	0.84488645	0.7216386
La	0.95053895	0.8453674	0.84467885
La	0.94871025	0.8448594	0.9678424
La	0.9471816	0.945846	0.0915475
La	0.94903	0.94374575	0.21811585
La	0.94788065	0.94573965	0.34090625
La	0.9599165	0.93716575	0.47040795
La	0.95094125	0.94664525	0.5948734
La	0.94915575	0.9467173	0.7202241
La	0.9492414	0.94534545	0.8443353
La	0.94894025	0.94607285	0.9688599
La	0.99819745	0.09424715	0.09356325
La	0.9996857	0.0947392	0.2182166
La	0.9998439	0.0952536	0.34191055
La	0.0015884	0.094067	0.46864945
La	0.0012721	0.09363735	0.59437655
La	0.00139325	0.09623475	0.71917255
La	0.000956	0.09500645	0.84422495
La	0.99986935	0.0943932	0.96708535
La	0.99769485	0.19308505	0.09410635
La	0.99703675	0.19289355	0.21821905
La	0.99877485	0.19629965	0.3438226
La	0.9996171	0.19371135	0.47183265
La	0.99862955	0.1952674	0.5952868
La	0.99937135	0.1945067	0.7199556
La	0.9990653	0.1955869	0.84451155
La	0.9975963	0.19512555	0.9679735
La	0.99944695	0.2949041	0.09292965
La	0.9966546	0.2775712	0.21972005
La	0.99938305	0.29483885	0.3444539
La	0.9990344	0.2941851	0.4691535
La	0.99979195	0.2969773	0.59565025
La	0.0010242	0.2939122	0.71990315
La	0.0006999	0.29592065	0.84329605
La	0.9997053	0.2956727	0.96837995
La	0.0002869	0.39725225	0.0912264
La	0.00022025	0.3955688	0.21743835
La	0.99998345	0.39567465	0.34337885
La	0.00190325	0.39650775	0.4711323
La	0.00090775	0.3966821	0.59447735
La	0.9991906	0.39649225	0.71960945
La	0.00016145	0.39522865	0.8432947
La	0.99889835	0.3955343	0.9677176
La	0.00108405	0.4953192	0.09195915
La	0.99896825	0.49532055	0.21737885
La	0.00161175	0.49480315	0.34604365
La	0.0012711	0.4970621	0.47005415
La	0.00098375	0.4953414	0.59438405
La	0.00091575	0.4953538	0.7182156
La	0.9999621	0.49516775	0.8428167
La	0.9996571	0.4956806	0.9676632
La	0.9995831	0.59337035	0.09346895
La	0.99924695	0.5923392	0.2177845
La	0.99730285	0.59088435	0.34417545
La	0.9992416	0.5929443	0.46918
La	0.0003976	0.59387315	0.59379025
La	0.0005732	0.5943177	0.7189942
La	0.9990893	0.59336335	0.84389755
La	0.99834645	0.59409165	0.96849835
La	0.9972756	0.6927783	0.09279805
La	0.0012077	0.6940319	0.21930725
La	0.99981305	0.69274445	0.3472395
La	0.00320625	0.69537495	0.4700497
La	0.0018572	0.69353335	0.5958753
La	0.0013021	0.6953156	0.7191683
La	0.99969365	0.69396695	0.84348935
La	0.99744425	0.69489335	0.9669321
La	0.9992835	0.79547475	0.0920108
La	0.99954465	0.79565675	0.2165124
La	0.0009769	0.7963101	0.3440693
La	0.00349515	0.7966378	0.4705735
La	0.0030152	0.79501155	0.59489075
La	0.00120665	0.7934027	0.7195569
La	0.0006716	0.7948893	0.8443798
La	0.99902275	0.79468275	0.9676067
La	8.89E-05	0.8980173	0.0915268
La	0.00144045	0.895575	0.218832
La	0.0046108	0.8967352	0.346515
La	0.0050693	0.89841185	0.4695276
La	0.00384795	0.89644765	0.5961498
La	0.00257525	0.896438	0.7202126
La	0.00127095	0.8947631	0.8441925
La	0.0007791	0.895657	0.96781135
La	0.00229405	0.99643355	0.0930001
La	0.00152785	0.9948479	0.21843205
La	0.00188275	0.9970054	0.34150835
La	0.00462185	0.99464255	0.469981
La	0.0042566	0.99406215	0.59354345
La	0.0012877	0.99606305	0.7189202
La	0.00034285	0.9954936	0.8451162
La	0.99934575	0.99599245	0.96831125
La	0.0969204	0.0919544	0.0918869
La	0.1010792	0.0956248	0.21891425
La	0.1029941	0.0935008	0.34447375
La	0.10333635	0.09411635	0.47017025
La	0.1010818	0.09318525	0.59515245
La	0.09825	0.0935716	0.71850895
La	0.1001535	0.0951986	0.84321525
La	0.09776685	0.0949882	0.96710905
La	0.09659855	0.19183945	0.09523625
La	0.1001891	0.19162605	0.2196576
La	0.09820545	0.18330625	0.34507745
La	0.10012555	0.1939925	0.47115175
La	0.09971915	0.19470905	0.59617475
La	0.0980463	0.19451435	0.7197813
La	0.09786635	0.19405945	0.84326465
La	0.0975682	0.19494805	0.96747
La	0.0962363	0.2960846	0.0922746
La	0.0977654	0.29541995	0.2171279
La	0.09988465	0.29554265	0.34542175
La	0.10104365	0.29625615	0.4706787
La	0.09763405	0.2974514	0.593866
La	0.0975475	0.29612045	0.71887025
La	0.09955355	0.29592675	0.84457015
La	0.0999237	0.2961756	0.96803195
La	0.09894395	0.3967553	0.0934994
La	0.1013891	0.39914835	0.2178393
La	0.10127675	0.3980617	0.3452576
La	0.10086045	0.39726295	0.46865445
La	0.10047325	0.39681425	0.5951364
La	0.0996078	0.39454965	0.7194437
La	0.0988236	0.3970015	0.84298915
La	0.0995367	0.39638335	0.9676057
La	0.097987	0.494703	0.09261125
La	0.0990845	0.4978068	0.2169509
La	0.10038905	0.49574275	0.34505975
La	0.1017427	0.4948848	0.46908535
La	0.0997949	0.49575505	0.5947691
La	0.0995048	0.495824	0.7187178
La	0.0994014	0.4950093	0.84334675
La	0.09934695	0.4948092	0.967969
La	0.0952579	0.59209595	0.093091
La	0.0994169	0.5929029	0.21881905
La	0.1001785	0.59350375	0.34581225
La	0.09998175	0.5950747	0.4698852
La	0.1005882	0.59417175	0.59481005
La	0.09883935	0.59457365	0.7197132
La	0.09896425	0.59471115	0.84346565
La	0.0986036	0.59351115	0.96787535
La	0.08965685	0.68757585	0.09144385
La	0.1021526	0.694822	0.2189971
La	0.10130395	0.6940784	0.3444213
La	0.0976077	0.69353305	0.4694809
La	0.1004643	0.6936744	0.5960343
La	0.09670705	0.69159385	0.7186442
La	0.09738035	0.69377745	0.8447916
La	0.0974584	0.693892	0.96829435
La	0.10056005	0.79640195	0.09200905
La	0.10206675	0.7965394	0.21909535
La	0.100244	0.79693105	0.34534515
La	0.09300875	0.78366175	0.46851125
La	0.10312635	0.79367395	0.59681395
La	0.10138505	0.7948057	0.72136575
La	0.0990573	0.7953403	0.84263335
La	0.10067535	0.79476065	0.96884355
La	0.10166665	0.8994232	0.0923522
La	0.10332575	0.9000654	0.21952905
La	0.1035963	0.8966556	0.3453125
La	0.1032291	0.89778415	0.47061665
La	0.10287165	0.8961016	0.5948499
La	0.10157045	0.89566835	0.72009945
La	0.1009418	0.8952676	0.84339665
La	0.100814	0.896477	0.9669386
La	0.10221345	0.99630715	0.09324075
La	0.10217915	0.9968987	0.21964935
La	0.10307325	0.994534	0.34368675
La	0.1078391	0.98055815	0.47201395
La	0.1031278	0.99514945	0.59494205
La	0.1015142	0.99576585	0.71929495
La	0.1017714	0.9959135	0.8427988
La	0.09967555	0.99468355	0.96903175
La	0.19980595	0.0936852	0.09355815
La	0.2070273	0.0850839	0.2167717
La	0.20514945	0.09338265	0.34506995
La	0.2033615	0.091362	0.46916485
La	0.20112105	0.09464245	0.5952432
La	0.2002841	0.09380405	0.7189472
La	0.2000206	0.095364	0.84302305
La	0.1988439	0.0935512	0.96965015
La	0.19655115	0.1957639	0.09353505
La	0.19898415	0.1928764	0.21851335
La	0.20316175	0.1932048	0.3445109
La	0.2020379	0.18982015	0.46993505
La	0.19670085	0.1930306	0.59558665
La	0.19848075	0.19400045	0.71826355
La	0.196603	0.1926589	0.84307515
La	0.1963366	0.19370605	0.9686408
La	0.1954298	0.2965105	0.0937125
La	0.2010217	0.29598195	0.22089785
La	0.20326625	0.29705315	0.3455264
La	0.2000895	0.29353395	0.46924285
La	0.1972419	0.29505445	0.5952678
La	0.1966119	0.296015	0.71884285
La	0.19524575	0.29642815	0.8437127
La	0.19745765	0.3056998	0.96680445
La	0.19950345	0.40078795	0.0937278
La	0.1989482	0.3964856	0.2181927
La	0.19957185	0.39798255	0.34525205
La	0.1990542	0.39690055	0.47018825
La	0.19975425	0.3970862	0.5928986
La	0.19996615	0.39574195	0.71888415
La	0.19984545	0.3979235	0.8425667
La	0.20065775	0.39911225	0.9677183
La	0.20076595	0.4960103	0.0920289
La	0.19985625	0.4957371	0.2170703
La	0.2013198	0.49676515	0.34453905
La	0.2007728	0.4957726	0.4720233
La	0.20003485	0.4955117	0.5944525
La	0.1990872	0.49492725	0.7191994
La	0.19858685	0.4948598	0.84376835
La	0.19990015	0.49604225	0.9667573
La	0.1975612	0.59172665	0.0907334
La	0.1892393	0.58333845	0.218457
La	0.20082735	0.59399635	0.3459601
La	0.19881175	0.5855969	0.46668855
La	0.19948695	0.5938854	0.59437615
La	0.1993147	0.59379585	0.71830805
La	0.199461	0.59542515	0.8427862
La	0.1992637	0.59359285	0.96695
La	0.1971999	0.69297905	0.09363845
La	0.2018313	0.69372915	0.22004875
La	0.2020516	0.690652	0.3439525
La	0.202619	0.69416005	0.4694239
La	0.1980418	0.6929553	0.5945692
La	0.1983226	0.69140325	0.718552
La	0.19795	0.6935969	0.8439556
La	0.19880495	0.694846	0.96765215
La	0.1996557	0.7964984	0.0911652
La	0.2014872	0.7986083	0.2191048
La	0.20228055	0.79641605	0.3444542
La	0.2014473	0.79714675	0.47016125
La	0.19978605	0.7946622	0.59408735
La	0.19944465	0.79520255	0.7185711
La	0.19982305	0.7969679	0.843009
La	0.2011797	0.7978297	0.96854525
La	0.2007545	0.8991636	0.0919979
La	0.2020231	0.8965485	0.2180753
La	0.20173205	0.8962435	0.3442116
La	0.20223585	0.89691915	0.46849705
La	0.2021458	0.89569395	0.5940582
La	0.20195625	0.89826925	0.71749425
La	0.20024495	0.89739215	0.84381135
La	0.20006875	0.89713865	0.96793825
La	0.2022248	0.9953415	0.09381165
La	0.20267625	0.99499625	0.21942235
La	0.20322955	0.9960834	0.3428942
La	0.2027945	0.99593445	0.4684265
La	0.2032967	0.99520085	0.59370545
La	0.20102835	0.9966695	0.7188088
La	0.20177025	0.99595655	0.8422102
La	0.20021	0.99627575	0.96854955
La	0.3015806	0.09046425	0.0958227
La	0.30301005	0.0923724	0.21876315
La	0.30233145	0.09307165	0.34355795
La	0.29674095	0.08602365	0.46851005
La	0.30239615	0.09176025	0.59247815
La	0.300193	0.09145	0.7182859
La	0.2979172	0.0912067	0.8435278
La	0.2988011	0.0919904	0.967732
La	0.30267555	0.1870383	0.09560425
La	0.303365	0.1913967	0.22059245
La	0.3026882	0.18534605	0.3424964
La	0.30252625	0.1908905	0.46959605
La	0.2990292	0.19213655	0.59150605
La	0.29754885	0.19194505	0.7179477
La	0.2982545	0.19047845	0.84566165
La	0.29839305	0.19067855	0.9679233
La	0.2980422	0.2929302	0.0959716
La	0.299856	0.2948993	0.22012235
La	0.30329275	0.29261285	0.34672735
La	0.29291555	0.2876829	0.46835905
La	0.2981179	0.292631	0.591455
La	0.2982592	0.29631415	0.71898435
La	0.29730935	0.3006072	0.8415845
La	0.298233	0.3042906	0.96688015
La	0.29773385	0.39588995	0.0928105
La	0.3003302	0.3991377	0.21906235
La	0.3028476	0.4001567	0.34640275
La	0.3022061	0.39729675	0.4698453
La	0.29945945	0.40202915	0.5944853
La	0.29931995	0.3975401	0.71987705
La	0.30012165	0.3988479	0.84134725
La	0.29997865	0.4036845	0.96697945
La	0.2996164	0.49555275	0.0928234
La	0.3012316	0.4955854	0.219037
La	0.2997652	0.49552065	0.3457726
La	0.29980955	0.4962449	0.47006525
La	0.29993735	0.4962889	0.59230745
La	0.2996351	0.4951058	0.7182746
La	0.29912195	0.49591	0.84482485
La	0.2991067	0.49636345	0.9665526
La	0.3028097	0.5951957	0.0960071
La	0.3012481	0.5941115	0.2194144
La	0.30096945	0.5933058	0.347123
La	0.30280225	0.59178835	0.4700657
La	0.29890075	0.5936343	0.59368365
La	0.29596095	0.59164875	0.7165377
La	0.2996254	0.5938337	0.84337375
La	0.30092755	0.5936431	0.96781125
La	0.3021313	0.6925163	0.0960557
La	0.30322435	0.69370615	0.22113485
La	0.30541505	0.69200235	0.3429319
La	0.30291525	0.69520975	0.46866255
La	0.3009773	0.6935434	0.59474995
La	0.29757035	0.69196475	0.7180975
La	0.2961401	0.6917353	0.8440064
La	0.2975817	0.68796675	0.969229
La	0.3019414	0.79657525	0.0952556
La	0.30183475	0.79620585	0.22016855
La	0.29988925	0.79675635	0.3442216
La	0.30174815	0.7970423	0.4693762
La	0.3018974	0.796316	0.59324515
La	0.29978795	0.797084	0.71724925
La	0.30029105	0.8025802	0.8439425
La	0.30210045	0.79881175	0.9671421
La	0.2996165	0.90066775	0.09207265
La	0.30179555	0.8982174	0.219201
La	0.30284225	0.89861875	0.34381285
La	0.3010996	0.89864165	0.46764965
La	0.3011901	0.89817025	0.5939202
La	0.30028995	0.89784655	0.7181064
La	0.30020435	0.89890405	0.84490515
La	0.3014953	0.90030635	0.96752745
La	0.3018866	0.99449045	0.0936716
La	0.30199385	0.99547255	0.21966065
La	0.3018561	0.9965347	0.34339495
La	0.3026814	0.99562985	0.4674813
La	0.30073405	0.99599445	0.5946818
La	0.29973925	0.996798	0.71783015
La	0.29979075	0.99521725	0.8414504
La	0.3001826	0.9947496	0.96974495
La	0.40308295	0.0926534	0.0949628
La	0.4020581	0.09152735	0.21926885
La	0.40223565	0.0931551	0.3435768
La	0.40026405	0.09147505	0.46994785
La	0.3996453	0.09378845	0.5927944
La	0.40057175	0.09132175	0.71836595
La	0.4001118	0.08766355	0.8428244
La	0.40087645	0.09249315	0.96964375
La	0.4026114	0.1885743	0.09379865
La	0.40288855	0.1884543	0.2197167
La	0.4030944	0.19270135	0.343411
La	0.40050185	0.18939385	0.46984595
La	0.39860465	0.19229975	0.59239755
La	0.40049545	0.19379595	0.71777945
La	0.39286185	0.18632355	0.84422765
La	0.4019769	0.19450285	0.96967665
La	0.4046471	0.29521275	0.0992252
La	0.40707335	0.28846775	0.22080355
La	0.40429945	0.2931003	0.34467635
La	0.4007003	0.29385375	0.4704589
La	0.398161	0.29296895	0.59362615
La	0.4021259	0.295263	0.71694205
La	0.4013543	0.29588855	0.843791
La	0.40238585	0.29962005	0.9704443
La	0.3997107	0.40094765	0.09366525
La	0.401797	0.3981864	0.21846025
La	0.40180875	0.3971243	0.3443343
La	0.4005705	0.3972041	0.46819205
La	0.39926745	0.40060295	0.5931565
La	0.40055125	0.3984236	0.7178072
La	0.4019373	0.40148175	0.84148575
La	0.399603	0.4006572	0.96859265
La	0.4021315	0.49615985	0.09333555
La	0.39994185	0.49885555	0.21730355
La	0.40174815	0.4969674	0.3445026
La	0.40296335	0.4975131	0.46866535
La	0.39926975	0.49656	0.5938093
La	0.4004189	0.49516075	0.71817155
La	0.4006234	0.4955512	0.8427948
La	0.40146495	0.49779995	0.967593
La	0.40143695	0.593066	0.093858
La	0.40181065	0.5938352	0.2188354
La	0.40210655	0.59453015	0.34469235
La	0.40012395	0.59462705	0.46930045
La	0.3998045	0.5897764	0.59290645
La	0.395901	0.58827925	0.7189214
La	0.4009143	0.59287585	0.84262695
La	0.3997137	0.5939217	0.9704453
La	0.40484695	0.69382715	0.0950887
La	0.403935	0.69283045	0.2197762
La	0.40228275	0.6927949	0.3447889
La	0.40098935	0.69649255	0.4679281
La	0.4002997	0.69104085	0.5935421
La	0.3973776	0.69228815	0.71883125
La	0.40092315	0.6949756	0.8443134
La	0.40275605	0.69276915	0.97259685
La	0.402899	0.79677075	0.09319015
La	0.40133585	0.79623215	0.21860345
La	0.40233205	0.7959076	0.3436104
La	0.40025245	0.7997404	0.4671409
La	0.3991385	0.7986659	0.5925088
La	0.3992739	0.7977336	0.7190645
La	0.4004978	0.79534045	0.8419664
La	0.40044405	0.79692885	0.9682775
La	0.39998385	0.8983746	0.09294935
La	0.4016113	0.8990256	0.21921425
La	0.400769	0.89692325	0.3436818
La	0.4002974	0.89721285	0.46767405
La	0.39958555	0.8986305	0.5930342
La	0.3991673	0.89874415	0.72010685
La	0.4000899	0.89689165	0.8445606
La	0.40039	0.89838295	0.96787105
La	0.40185555	0.99588645	0.0947756
La	0.40281615	0.99590585	0.21933175
La	0.3999064	0.99377225	0.3429984
La	0.4008022	0.99520515	0.46798885
La	0.39944185	0.99621645	0.5916763
La	0.39924575	0.99689365	0.7171242
La	0.399683	0.9945742	0.84326575
La	0.40121765	0.9951639	0.97026225
La	0.5024825	0.0945793	0.0941557
La	0.5019016	0.0921452	0.21911175
La	0.5005389	0.0933601	0.34437595
La	0.4994802	0.09237925	0.46801065
La	0.49726785	0.0926882	0.59330585
La	0.4998063	0.0933906	0.7168113
La	0.50056185	0.09146265	0.844092
La	0.5011851	0.09131045	0.9691796
La	0.50520945	0.18863505	0.09416765
La	0.5041061	0.1905176	0.21767245
La	0.50203575	0.19212965	0.34498295
La	0.4995241	0.1924862	0.46818285
La	0.5004251	0.19095995	0.59335625
La	0.501038	0.1917653	0.7188886
La	0.50178225	0.18838205	0.8439174
La	0.502988	0.19174095	0.96948485
La	0.50416275	0.2959669	0.09396765
La	0.5075172	0.28358815	0.22000145
La	0.50203275	0.2930561	0.3458911
La	0.50101785	0.2889577	0.4645531
La	0.50126105	0.2955239	0.59361015
La	0.5013821	0.29645285	0.71816115
La	0.5017369	0.2953656	0.84098985
La	0.5039167	0.2951385	0.96985105
La	0.4983145	0.40028155	0.0927978
La	0.4994818	0.3994553	0.21954475
La	0.50282255	0.3978995	0.34324865
La	0.5003126	0.39807345	0.468216
La	0.50177685	0.3974293	0.5926174
La	0.5026327	0.39968185	0.7181042
La	0.5010494	0.39810715	0.84403645
La	0.50127295	0.39881975	0.9680592
La	0.50060005	0.49715245	0.0939187
La	0.50093595	0.49817965	0.21742005
La	0.5003876	0.4965123	0.3436411
La	0.5002201	0.4960991	0.46876335
La	0.49993315	0.49525995	0.594017
La	0.5008912	0.49611885	0.71901645
La	0.4997953	0.4962867	0.8416943
La	0.5019777	0.4965591	0.9683532
La	0.5016963	0.59615955	0.0942435
La	0.5001911	0.59326135	0.22022915
La	0.5011259	0.5938048	0.34468775
La	0.50056965	0.59391725	0.4680377
La	0.5002941	0.59072455	0.5936194
La	0.5025353	0.59179315	0.7189483
La	0.5000272	0.5902434	0.84317395
La	0.5026034	0.5943941	0.96871445
La	0.502301	0.69622275	0.09587115
La	0.5049514	0.690621	0.2208048
La	0.4995994	0.6927796	0.34501425
La	0.50009605	0.6939722	0.46721815
La	0.5005101	0.68930155	0.5951917
La	0.4996929	0.68873745	0.7191045
La	0.50311945	0.694267	0.84401515
La	0.5027481	0.69507655	0.96973755
La	0.50135375	0.79586275	0.0933728
La	0.50101025	0.79580965	0.21842885
La	0.50039085	0.79567695	0.34417135
La	0.4987898	0.7960255	0.4674503
La	0.4980316	0.7955445	0.5923953
La	0.5002329	0.7985938	0.72000745
La	0.5002379	0.7960743	0.84382965
La	0.50060045	0.7966768	0.96914475
La	0.49981595	0.8993775	0.09426965
La	0.5001255	0.8986533	0.21813215
La	0.5001871	0.897528	0.34294495
La	0.4987224	0.89827525	0.4669721
La	0.4974159	0.89666905	0.59224055
La	0.50011815	0.8978883	0.71859925
La	0.5006985	0.89748395	0.8438819
La	0.49951105	0.8993538	0.96866965
La	0.50004405	0.9957866	0.09453715
La	0.50098295	0.9944815	0.218698
La	0.50021335	0.99508155	0.342904
La	0.50014255	0.9969289	0.46789555
La	0.4994848	0.9952284	0.59271945
La	0.49844345	0.99784125	0.71740205
La	0.49976555	0.99624165	0.84386085
La	0.5002705	0.9958879	0.9693726
La	0.6015043	0.0922604	0.09461505
La	0.59898205	0.09168445	0.21799925
La	0.5997432	0.0940741	0.34371765
La	0.59851855	0.0916078	0.46635495
La	0.5999314	0.0964726	0.59369265
La	0.6002882	0.09367895	0.7190803
La	0.6035746	0.09594475	0.84347685
La	0.60199305	0.0939847	0.9684813
La	0.5988323	0.18366015	0.09249975
La	0.6004325	0.1932094	0.22061715
La	0.5999712	0.1905351	0.3438878
La	0.5995821	0.1927616	0.46819595
La	0.6007233	0.19483855	0.5949493
La	0.6029822	0.19385755	0.7196873
La	0.6031364	0.19331525	0.8451706
La	0.6026358	0.19306515	0.97135895
La	0.60508365	0.29426695	0.0957235
La	0.6028038	0.29407065	0.21748225
La	0.6005794	0.2943054	0.34531135
La	0.60040005	0.29280715	0.4696361
La	0.6028511	0.29524345	0.59248965
La	0.60316765	0.29577775	0.71927235
La	0.60264215	0.29611925	0.84372205
La	0.6046674	0.29604305	0.969086
La	0.60100185	0.398487	0.09383875
La	0.60161315	0.39619705	0.21796705
La	0.60049295	0.39608975	0.34489685
La	0.6000791	0.39507855	0.4681858
La	0.59951795	0.39974985	0.5916947
La	0.6007712	0.3990242	0.717768
La	0.60111575	0.3974941	0.84283495
La	0.60270135	0.39631945	0.96806255
La	0.60250255	0.49711005	0.0935272
La	0.60010425	0.49703175	0.2178967
La	0.60015645	0.49704295	0.34479335
La	0.6008148	0.497224	0.46815975
La	0.60012075	0.4969911	0.5934161
La	0.6025392	0.495069	0.7197397
La	0.6012523	0.49529125	0.84422545
La	0.6008473	0.49590585	0.96782975
La	0.6016955	0.5949103	0.09319545
La	0.60131965	0.5929131	0.2174711
La	0.59942245	0.5943412	0.3436142
La	0.5999224	0.59225415	0.46908415
La	0.60120545	0.59220825	0.5933707
La	0.60067	0.59345115	0.7188524
La	0.6007349	0.5950426	0.84508275
La	0.60288545	0.5941051	0.97035775
La	0.60255945	0.69483985	0.0943347
La	0.6028482	0.69400785	0.2186368
La	0.5981682	0.6836744	0.34176435
La	0.59974685	0.69419805	0.468336
La	0.6021156	0.68876	0.59334045
La	0.60307075	0.69279685	0.7205907
La	0.60261545	0.69469385	0.8433877
La	0.60476615	0.6934574	0.96853315
La	0.6034809	0.794424	0.0948134
La	0.6016129	0.7967803	0.2177371
La	0.59972725	0.79640175	0.34233175
La	0.5986226	0.79679175	0.4665644
La	0.600473	0.79750065	0.59255975
La	0.5997303	0.7958725	0.72103375
La	0.6024466	0.79509085	0.8450438
La	0.6014448	0.7951864	0.97055075
La	0.60007175	0.89579215	0.09310675
La	0.59956795	0.89724835	0.21792505
La	0.5990082	0.89671415	0.34269605
La	0.5973671	0.89864965	0.46706035
La	0.59695325	0.89721945	0.5912582
La	0.5989617	0.8979092	0.717056
La	0.5992887	0.89638015	0.84526575
La	0.6014061	0.8958416	0.9689639
La	0.60039405	0.99518225	0.0943781
La	0.59948325	0.9954723	0.21890505
La	0.59961085	0.99489555	0.3429824
La	0.5983794	0.9949735	0.46733275
La	0.59718555	0.9955479	0.59406215
La	0.5988965	0.99630245	0.71868665
La	0.59846765	0.9948893	0.8443588
La	0.60124015	0.9960939	0.9700429
La	0.69982305	0.09615245	0.0939242
La	0.69967625	0.09729815	0.2189781
La	0.69864715	0.0953763	0.34384315
La	0.6996597	0.09426325	0.4677119
La	0.69865405	0.09606095	0.59531405
La	0.7004959	0.0955589	0.7185629
La	0.70203545	0.09623705	0.84425935
La	0.7002247	0.09477905	0.96847385
La	0.703238	0.1940886	0.09481665
La	0.7013364	0.19526995	0.21791685
La	0.70004345	0.1940512	0.34347645
La	0.6983436	0.19481515	0.4682183
La	0.7017707	0.1964136	0.59394245
La	0.7032021	0.193437	0.7197766
La	0.7035552	0.1946724	0.8451983
La	0.70211955	0.19435995	0.9692852
La	0.7016665	0.2958346	0.09435635
La	0.70140465	0.29500675	0.21957225
La	0.70128795	0.29517835	0.34429385
La	0.7001729	0.2947936	0.47003575
La	0.7004011	0.2986126	0.59521675
La	0.7011281	0.2966316	0.71902955
La	0.70114665	0.2954033	0.84520445
La	0.7032842	0.2948803	0.9688429
La	0.70048795	0.39537215	0.0937328
La	0.70084995	0.39678755	0.21955125
La	0.70092775	0.39783795	0.34423805
La	0.7016111	0.39649155	0.46903425
La	0.69996665	0.3957285	0.5939591
La	0.70108985	0.39489305	0.71887975
La	0.70165375	0.3961384	0.8421261
La	0.70269945	0.39667895	0.96825765
La	0.6998928	0.49499555	0.09339195
La	0.6996408	0.49629295	0.21743965
La	0.69972305	0.49399895	0.3426028
La	0.7000367	0.4960917	0.46886365
La	0.70010435	0.49390935	0.59381025
La	0.6993776	0.49475675	0.7204157
La	0.70184545	0.49555245	0.8438461
La	0.70087455	0.4956495	0.9682291
La	0.7009861	0.5937775	0.0939471
La	0.69943265	0.5953746	0.2174556
La	0.699644	0.5936777	0.3452111
La	0.6958924	0.5880648	0.46783415
La	0.7013981	0.59316455	0.59410455
La	0.7011126	0.5930985	0.71883055
La	0.70088575	0.59494545	0.84506545
La	0.701674	0.59359585	0.9686903
La	0.6998974	0.69516955	0.09440425
La	0.7010008	0.6940833	0.2181098
La	0.69815155	0.6920186	0.34361975
La	0.69512585	0.6836898	0.4666089
La	0.69341	0.67928545	0.59351565
La	0.70323735	0.69389565	0.72096225
La	0.7016315	0.69492985	0.8442662
La	0.7018529	0.6935909	0.9695873
La	0.70093485	0.7946446	0.0938572
La	0.69987235	0.7956259	0.2166834
La	0.69904635	0.79390425	0.341219
La	0.69692995	0.79645195	0.46781335
La	0.69939425	0.79545475	0.59206955
La	0.7011723	0.79633665	0.7200385
La	0.7009863	0.7942789	0.84503245
La	0.7011533	0.79512465	0.9699547
La	0.69972515	0.8967904	0.0947768
La	0.6993844	0.89606035	0.21727125
La	0.69691565	0.8967553	0.34319865
La	0.69916065	0.89529715	0.4675086
La	0.69378385	0.8885982	0.5916258
La	0.7001911	0.8960456	0.72114295
La	0.6998825	0.8960888	0.84550175
La	0.7015675	0.8959428	0.9688521
La	0.69915085	0.99583685	0.0939211
La	0.69499585	0.99093415	0.21887765
La	0.69762085	0.99457995	0.3406466
La	0.6986961	0.99867685	0.4668587
La	0.69674485	0.9950883	0.5932011
La	0.6996125	0.99554155	0.7176076
La	0.69914595	0.9958233	0.84509475
La	0.69954365	0.99608985	0.9700271
La	0.80002515	0.09496495	0.09309615
La	0.7988223	0.0941284	0.21865535
La	0.797433	0.0948613	0.3433888
La	0.799557	0.0951776	0.46763795
La	0.80094205	0.09566185	0.59396105
La	0.80079885	0.09508135	0.720157
La	0.7994874	0.0953158	0.84503765
La	0.80042945	0.0934708	0.96893685
La	0.80071295	0.19386125	0.0935907
La	0.800309	0.1946096	0.21832125
La	0.7990403	0.1929591	0.3424751
La	0.79776515	0.19476635	0.46652245
La	0.80020685	0.1951409	0.5957525
La	0.8018838	0.1954789	0.72203255
La	0.8024227	0.1950741	0.84337765
La	0.8015426	0.19458845	0.9679077
La	0.80176555	0.29556935	0.0924413
La	0.79924455	0.2950251	0.2178588
La	0.79922145	0.29442925	0.3442553
La	0.80212975	0.29507385	0.46834875
La	0.8011415	0.2964285	0.59388125
La	0.7952917	0.28286565	0.7186002
La	0.8002375	0.29562975	0.84388615
La	0.8016801	0.2960111	0.96788495
La	0.80031445	0.39567885	0.0931712
La	0.79998965	0.39498715	0.2179595
La	0.8005194	0.3968087	0.344042
La	0.80005155	0.39615705	0.4701589
La	0.80091485	0.3965921	0.59325645
La	0.8002156	0.3955136	0.7196703
La	0.80170905	0.39542385	0.84439475
La	0.80118115	0.3958506	0.96908725
La	0.79944205	0.49549395	0.09360555
La	0.7990382	0.49514945	0.2170329
La	0.79939785	0.4967974	0.3433052
La	0.80077735	0.49431675	0.46930205
La	0.80224365	0.4959194	0.5951182
La	0.8005803	0.4954084	0.7190326
La	0.80158835	0.49445655	0.84397375
La	0.80094635	0.4947526	0.9676935
La	0.79964305	0.59594925	0.0936941
La	0.7978194	0.5951661	0.2180045
La	0.79901145	0.5933092	0.34250565
La	0.79802865	0.59377245	0.46867195
La	0.8012234	0.59272105	0.5950433
La	0.80094805	0.5934652	0.7199837
La	0.80152585	0.59398215	0.8443593
La	0.80027215	0.5955903	0.96790435
La	0.8009269	0.6946617	0.0943449
La	0.79964255	0.69436735	0.218167
La	0.79898825	0.6932513	0.3442697
La	0.8027206	0.69037535	0.4684727
La	0.80038415	0.6925893	0.59613975
La	0.80101645	0.6945702	0.7209847
La	0.79991685	0.6947005	0.8457213
La	0.80146545	0.69527115	0.9684359
La	0.8001808	0.79562385	0.0927486
La	0.79845415	0.79429715	0.21771665
La	0.79911905	0.79685195	0.3423557
La	0.7897475	0.78601325	0.46631255
La	0.7990502	0.7916321	0.59515375
La	0.8025163	0.7939324	0.72181975
La	0.80329815	0.79426265	0.8459095
La	0.7997897	0.79480815	0.96880665
La	0.80031835	0.89502565	0.0936644
La	0.79699855	0.8945972	0.2171309
La	0.79879425	0.89625585	0.3402939
La	0.79900145	0.89568275	0.4667048
La	0.79905885	0.8949879	0.5952274
La	0.8026122	0.8943983	0.72105815
La	0.80137065	0.8949197	0.84572305
La	0.7994405	0.8953193	0.9695879
La	0.79916675	0.99464325	0.09338
La	0.7978574	0.99628075	0.218155
La	0.79842455	0.9956147	0.3429026
La	0.7966793	0.99718405	0.46711525
La	0.7952995	0.99393075	0.5919901
La	0.8013255	0.996116	0.72049485
La	0.7997057	0.996334	0.8449316
La	0.79870385	0.99565555	0.9688262
La	0.8984893	0.09381725	0.09183665
La	0.89890805	0.0964681	0.2186168
La	0.89894595	0.0974262	0.34378145
La	0.90033195	0.0954452	0.46988425
La	0.9015588	0.09531355	0.59392415
La	0.9003585	0.0959227	0.7200578
La	0.9007296	0.09521275	0.8457317
La	0.8981303	0.0956415	0.96819135
La	0.8975764	0.1946588	0.09294255
La	0.89720675	0.1940775	0.2185571
La	0.8977117	0.1817204	0.34336785
La	0.89939215	0.19473345	0.46939405
La	0.8996584	0.19540125	0.59586975
La	0.9002108	0.19609305	0.7210187
La	0.9012226	0.1952731	0.84455665
La	0.8984458	0.19477205	0.96781995
La	0.899864	0.2949056	0.09270865
La	0.8993859	0.2956627	0.2178455
La	0.89829775	0.29442995	0.3431279
La	0.89955355	0.29626525	0.47076345
La	0.901189	0.2967621	0.59471095
La	0.8990566	0.2947568	0.71924285
La	0.8992383	0.2948442	0.8438977
La	0.8999997	0.29621305	0.9675512
La	0.90037885	0.3969206	0.092756
La	0.90100565	0.3982307	0.2193324
La	0.9001456	0.3961832	0.3441029
La	0.90082575	0.396706	0.46867505
La	0.9009054	0.39591505	0.59436925
La	0.90075115	0.39636715	0.72072795
La	0.90013675	0.39608345	0.84389735
La	0.8998653	0.3954051	0.96724485
La	0.9000714	0.49638115	0.0930926
La	0.89991915	0.4953494	0.21726615
La	0.9005057	0.4953546	0.34430605
La	0.9007378	0.4961029	0.46943785
La	0.9005798	0.49440265	0.5942935
La	0.90030895	0.4952144	0.7189899
La	0.9004733	0.4955963	0.84361465
La	0.8993841	0.4949857	0.96769315
La	0.8997336	0.59469815	0.09189105
La	0.8970383	0.59426725	0.21835335
La	0.8995792	0.59382675	0.3436256
La	0.90025315	0.5935494	0.47024405
La	0.90049875	0.594721	0.59434845
La	0.9004683	0.59430515	0.7200879
La	0.9004092	0.5954892	0.8435174
La	0.9005821	0.5950256	0.96811965
La	0.899263	0.6945873	0.0923908
La	0.89713105	0.69363135	0.2161809
La	0.89586715	0.6934906	0.34480975
La	0.9019821	0.6930582	0.47048575
La	0.89997485	0.69280485	0.59552065
La	0.9015309	0.69486865	0.7187986
La	0.90104635	0.6929183	0.8455431
La	0.8980479	0.6953718	0.96874905
La	0.89938725	0.79584455	0.09291975
La	0.8968034	0.7927573	0.2201705
La	0.898238	0.79614395	0.34547235
La	0.9000479	0.79460255	0.46916795
La	0.8977083	0.7931122	0.59521265
La	0.90329995	0.79638825	0.7196413
La	0.9025566	0.794657	0.8437024
La	0.8996881	0.7944204	0.96864735
La	0.89887335	0.8963407	0.09340815
La	0.89979565	0.89593075	0.2165418
La	0.899222	0.90061645	0.3423191
La	0.90025515	0.8967053	0.46971455
La	0.90210275	0.8960354	0.59612115
La	0.9022123	0.89536995	0.7191621
La	0.90118395	0.89466685	0.8443556
La	0.90159135	0.89645965	0.96869515
La	0.8997912	0.9948124	0.09257155
La	0.89855655	0.99573885	0.2184666
La	0.9016534	0.9966993	0.3407045
La	0.90939265	0.98436935	0.47028615
La	0.9033422	0.9947788	0.5946887
La	0.9035574	0.99658455	0.71865125
La	0.90083535	0.9960551	0.84469315
La	0.89952685	0.9949677	0.96835115
La	0.0502184	0.0548196	0.0297343
La	0.05117715	0.05318465	0.1539831
La	0.05121265	0.0517253	0.27993515
La	0.0532142	0.05474265	0.4075063
La	0.0513852	0.0514891	0.5314816
La	0.0523381	0.05414405	0.65742655
La	0.0519747	0.0536961	0.78204205
La	0.0506552	0.05438655	0.90584565
La	0.048491	0.1546074	0.03079105
La	0.0502882	0.1526241	0.15401735
La	0.0497382	0.15401845	0.2806967
La	0.05088885	0.15358525	0.40626375
La	0.05270355	0.15561375	0.535652
La	0.0527294	0.15489835	0.65769275
La	0.0505617	0.15528375	0.78396815
La	0.04929865	0.1535869	0.9047482
La	0.04906325	0.2549355	0.02938675
La	0.0484835	0.25542925	0.155019
La	0.04888825	0.2574088	0.2792834
La	0.04846905	0.25693445	0.4072648
La	0.050119	0.2547699	0.532173
La	0.0492604	0.25655715	0.6573564
La	0.0489392	0.2557146	0.7814895
La	0.04976945	0.25705875	0.9050732
La	0.0500709	0.35526115	0.02960615
La	0.05271665	0.3570878	0.15517525
La	0.04881585	0.35642865	0.27982905
La	0.0527675	0.3564533	0.4070039
La	0.05005275	0.3564011	0.531673
La	0.05076865	0.3551011	0.6574328
La	0.0494249	0.35608225	0.7815082
La	0.0495352	0.35574955	0.90535665
La	0.0506774	0.4545567	0.0289175
La	0.05078675	0.45408605	0.1542768
La	0.05058535	0.45441265	0.27976965
La	0.05106955	0.4542052	0.40673435
La	0.05010225	0.453784	0.5320338
La	0.05035915	0.45447165	0.6561654
La	0.0500912	0.4547643	0.7804364
La	0.04989025	0.45402035	0.90616135
La	0.05113905	0.55358555	0.0307603
La	0.048904	0.5538158	0.1537796
La	0.054097	0.55312535	0.2798402
La	0.0515843	0.55239995	0.4080247
La	0.05372525	0.5545291	0.53200295
La	0.0505326	0.553751	0.65830575
La	0.0500394	0.5533558	0.78163605
La	0.04999305	0.5533567	0.90434145
La	0.0488555	0.65324585	0.02908645
La	0.04853945	0.65420745	0.15629515
La	0.0507482	0.64997105	0.28054205
La	0.05435215	0.65388475	0.4089191
La	0.0542545	0.6559382	0.5308131
La	0.05092885	0.653129	0.65753545
La	0.05001965	0.6552095	0.7811182
La	0.05116635	0.6556603	0.90611735
La	0.05061365	0.7549692	0.0288168
La	0.04169215	0.76636655	0.15505535
La	0.0547917	0.75749905	0.2826804
La	0.05375035	0.756125	0.4083088
La	0.0553736	0.75625595	0.5324417
La	0.0513486	0.7554442	0.6580294
La	0.0506748	0.75508425	0.78302
La	0.0488591	0.75395035	0.90531065
La	0.0513512	0.85424665	0.0286449
La	0.0530712	0.85602315	0.1537698
La	0.05402205	0.8568303	0.28042915
La	0.05361115	0.85636505	0.40427905
La	0.05251465	0.85477625	0.533235
La	0.0531868	0.8543829	0.65831535
La	0.05095135	0.8561789	0.78108065
La	0.0508402	0.8543155	0.904105
La	0.05086955	0.9561186	0.03088305
La	0.0516665	0.9534495	0.15814035
La	0.05282715	0.95503865	0.28105905
La	0.0542784	0.9554681	0.4059812
La	0.0543224	0.9533041	0.5323685
La	0.05498785	0.95363785	0.6566112
La	0.05178845	0.9547384	0.782096
La	0.05007695	0.95462035	0.9064157
La	0.15004835	0.0530602	0.03113055
La	0.15238175	0.05226495	0.1589021
La	0.1536702	0.0532293	0.28103985
La	0.15372365	0.054543	0.40608505
La	0.1519516	0.05395495	0.53172975
La	0.15216785	0.05454925	0.6574438
La	0.1489663	0.0539866	0.78112905
La	0.1502489	0.05462805	0.9070476
La	0.14865975	0.1554045	0.0294355
La	0.15228375	0.15364055	0.1571117
La	0.1532997	0.15470715	0.28100705
La	0.15493575	0.1686292	0.40964325
La	0.14980625	0.1659769	0.5342566
La	0.15199505	0.155749	0.65649645
La	0.15006775	0.1537554	0.7813044
La	0.14819495	0.15582375	0.90508205
La	0.14618105	0.25915925	0.0302986
La	0.1494653	0.2578428	0.15471545
La	0.15408735	0.2602938	0.27915545
La	0.1522301	0.2554322	0.4065688
La	0.151899	0.2549367	0.52983915
La	0.1454625	0.2663455	0.65586835
La	0.1488235	0.25555445	0.7809797
La	0.14796715	0.2574489	0.90527225
La	0.14834335	0.35666145	0.0296795
La	0.15092585	0.35701	0.15300625
La	0.152519	0.3573782	0.2798578
La	0.15219685	0.35557555	0.40731515
La	0.1496418	0.358679	0.53114775
La	0.1490331	0.35707695	0.6562412
La	0.1482402	0.35594265	0.78232965
La	0.15048365	0.3557196	0.9050981
La	0.151667	0.4541528	0.0299334
La	0.1501185	0.45459515	0.1543688
La	0.1527576	0.4535998	0.28198865
La	0.1526021	0.45449875	0.40705845
La	0.1509626	0.4540774	0.5323053
La	0.1498261	0.45484835	0.6575228
La	0.15202045	0.4565694	0.7817391
La	0.150407	0.4546365	0.9051923
La	0.1506387	0.5516561	0.02851785
La	0.1510962	0.551701	0.15482435
La	0.1524854	0.55275345	0.2831557
La	0.1529761	0.5534179	0.40796385
La	0.1524539	0.5547302	0.53202925
La	0.1501935	0.55362335	0.6560413
La	0.150788	0.55389545	0.7815956
La	0.1493113	0.55377475	0.9050153
La	0.14997135	0.65468755	0.0306167
La	0.15463285	0.66933275	0.1570234
La	0.15098915	0.6525443	0.28322365
La	0.15509545	0.6582617	0.41026645
La	0.149089	0.65410595	0.5334284
La	0.150665	0.65302665	0.65798725
La	0.14986035	0.6544945	0.7808439
La	0.14929305	0.65441425	0.90792325
La	0.1501736	0.7550765	0.0304409
La	0.14923	0.76310855	0.1547011
La	0.1537856	0.75665155	0.2827951
La	0.15401255	0.7563463	0.405963
La	0.1539964	0.7564146	0.5336949
La	0.1529718	0.7571499	0.65719945
La	0.1511824	0.75603555	0.77908135
La	0.1486715	0.756465	0.9060369
La	0.15246845	0.8552623	0.03012845
La	0.15082905	0.85420755	0.15576535
La	0.15427485	0.85425565	0.2824931
La	0.15398695	0.85677195	0.40749475
La	0.1526077	0.85674375	0.53284825
La	0.15331725	0.85568995	0.6576344
La	0.15375455	0.857148	0.7809245
La	0.1511788	0.8545818	0.9061695
La	0.1510054	0.95367515	0.0294612
La	0.15274205	0.95412385	0.15684935
La	0.15410055	0.95532625	0.2811818
La	0.15272475	0.9532273	0.4058179
La	0.15302885	0.95278135	0.531757
La	0.1535656	0.95455405	0.6558793
La	0.1516364	0.953576	0.78151115
La	0.15079305	0.9552389	0.9064414
La	0.25264205	0.0524892	0.03041945
La	0.25317875	0.05657345	0.1553151
La	0.2521174	0.05291965	0.28239285
La	0.2533451	0.05165885	0.40548665
La	0.2519527	0.05314175	0.5313641
La	0.2510153	0.05377205	0.6552334
La	0.25014185	0.04944755	0.77994715
La	0.25022595	0.0493364	0.904171
La	0.24942855	0.15220465	0.03337835
La	0.25275015	0.15268715	0.15840135
La	0.2521923	0.1553107	0.2840776
La	0.2524006	0.15261135	0.40695665
La	0.24956765	0.153817	0.53264335
La	0.253735	0.15631565	0.65761955
La	0.2470262	0.1538151	0.7815689
La	0.24923885	0.155632	0.9038009
La	0.2441425	0.2626438	0.0304037
La	0.24108895	0.26804305	0.1525925
La	0.25663655	0.2586004	0.28083455
La	0.25552495	0.2585486	0.4070098
La	0.2541024	0.26659385	0.52782495
La	0.25120645	0.2633889	0.6559059
La	0.2487226	0.25621175	0.78041555
La	0.2462903	0.25937185	0.90602925
La	0.250086	0.3560016	0.0305549
La	0.2507814	0.35707885	0.15453585
La	0.2529156	0.3575924	0.28000365
La	0.2494984	0.3555527	0.40881695
La	0.25143435	0.35564625	0.53100955
La	0.2492871	0.35536445	0.6557152
La	0.24768175	0.35600175	0.78102235
La	0.24959485	0.3545023	0.9037498
La	0.25080785	0.4540053	0.0292681
La	0.25018875	0.45416315	0.1563636
La	0.2507331	0.4540173	0.2820935
La	0.25075005	0.45395045	0.40712655
La	0.25173965	0.4548879	0.5310923
La	0.250795	0.4531135	0.6572654
La	0.25023245	0.45542785	0.780289
La	0.248375	0.45320245	0.90461945
La	0.2527493	0.5533287	0.03098525
La	0.25326405	0.555074	0.15653745
La	0.25396875	0.55086875	0.28151835
La	0.2517579	0.5525768	0.408314
La	0.25028985	0.5540763	0.5315161
La	0.25065405	0.55214065	0.65531195
La	0.2495601	0.5504145	0.7812991
La	0.24901065	0.5538856	0.9060767
La	0.2518004	0.65451045	0.03025045
La	0.25296625	0.6577564	0.15801935
La	0.25411565	0.65727585	0.2817815
La	0.2524235	0.6561196	0.40571235
La	0.25264545	0.6549078	0.530314
La	0.25079785	0.6533312	0.65456215
La	0.2439421	0.66442475	0.7811732
La	0.24904095	0.65444605	0.90448725
La	0.25302315	0.7600896	0.0312007
La	0.2545921	0.7587254	0.15505085
La	0.25381095	0.75801445	0.282517
La	0.2522726	0.75832305	0.4070949
La	0.2513649	0.75774865	0.53207585
La	0.2504278	0.7623256	0.65510335
La	0.25076535	0.75645545	0.782018
La	0.2480758	0.76004225	0.9038072
La	0.25261565	0.8573344	0.02924365
La	0.2512626	0.8572663	0.1563422
La	0.25290185	0.85700735	0.2802489
La	0.2528501	0.8566687	0.4070962
La	0.25265875	0.85557265	0.5305318
La	0.2515869	0.85765965	0.65537365
La	0.2509645	0.8558081	0.78100885
La	0.25126035	0.85706325	0.9068736
La	0.2514595	0.95328615	0.0303334
La	0.2513618	0.95253985	0.1577758
La	0.2538141	0.95351555	0.2814793
La	0.25278825	0.95530995	0.4052654
La	0.25225075	0.95369255	0.5312958
La	0.25121915	0.95361245	0.6565936
La	0.2518726	0.95291455	0.78124305
La	0.25084435	0.95380315	0.90587835
La	0.3522841	0.05079605	0.0337084
La	0.3519196	0.051621	0.15804495
La	0.35138405	0.0519885	0.2814099
La	0.3515408	0.0538481	0.4060906
La	0.3522992	0.05337335	0.5312755
La	0.35186875	0.04988085	0.6566309
La	0.35001625	0.0482104	0.7801751
La	0.35118295	0.0484694	0.9064831
La	0.3550808	0.154541	0.03323905
La	0.35378075	0.15221025	0.15952155
La	0.3527999	0.1530093	0.2823961
La	0.35253695	0.15307685	0.40726575
La	0.3523693	0.1550019	0.52973015
La	0.35067925	0.15215015	0.657097
La	0.35152575	0.1557626	0.78296895
La	0.3552145	0.1569777	0.90597515
La	0.3546034	0.2571935	0.0332232
La	0.3556343	0.25754875	0.1590074
La	0.35496715	0.2587749	0.28043975
La	0.35337825	0.2585897	0.4087338
La	0.35526045	0.2642466	0.52996865
La	0.3515688	0.2584668	0.654821
La	0.35156695	0.26030325	0.7799832
La	0.34987125	0.26413755	0.90487425
La	0.3507623	0.3567827	0.03026375
La	0.35202665	0.3576612	0.15566935
La	0.3490278	0.3580263	0.2806532
La	0.3519079	0.35586785	0.40486525
La	0.3507861	0.3568535	0.53134405
La	0.3519823	0.3560695	0.65664895
La	0.35133015	0.3559579	0.78097575
La	0.3496071	0.35621075	0.90427835
La	0.3504561	0.4548557	0.0315311
La	0.3524046	0.45464605	0.15563495
La	0.35317095	0.4555365	0.28038575
La	0.3510723	0.4536113	0.4062447
La	0.3516294	0.4546552	0.53093455
La	0.35041715	0.4549741	0.6568441
La	0.3502775	0.45426225	0.7817043
La	0.35089625	0.4531931	0.90630995
La	0.35036885	0.5509994	0.0308789
La	0.35316925	0.5528283	0.15573405
La	0.3524025	0.55082775	0.28119695
La	0.35067855	0.5513327	0.40736125
La	0.35134305	0.5487712	0.5320077
La	0.3495209	0.5490184	0.6550747
La	0.34887035	0.55138845	0.78071245
La	0.3506475	0.55162765	0.90684935
La	0.3572025	0.66914095	0.0298588
La	0.355511	0.65555615	0.15866605
La	0.3542966	0.65426255	0.28288425
La	0.3538855	0.6561341	0.4084411
La	0.3565019	0.65896225	0.5299086
La	0.34636645	0.65736455	0.6590842
La	0.3477652	0.6597152	0.7823092
La	0.35426825	0.65445395	0.90766025
La	0.35088385	0.76094775	0.03010455
La	0.35392475	0.7591095	0.1550072
La	0.3533629	0.7568796	0.2820514
La	0.35272245	0.7611039	0.40383865
La	0.3505375	0.75731855	0.53030335
La	0.3511342	0.7614778	0.65600145
La	0.349639	0.75856485	0.7803921
La	0.35066325	0.75731255	0.90415345
La	0.3529714	0.85930275	0.03121035
La	0.35278745	0.85562635	0.155526
La	0.35194	0.85519735	0.2810609
La	0.3498633	0.86577135	0.40757015
La	0.3514745	0.85793645	0.5301025
La	0.35129795	0.85550915	0.6549933
La	0.3502604	0.85517975	0.78101045
La	0.3495706	0.85854935	0.90667635
La	0.35320305	0.95452985	0.03071065
La	0.35142115	0.95478365	0.15673585
La	0.3517059	0.953453	0.28181675
La	0.35299235	0.9546064	0.4058004
La	0.351181	0.95352435	0.52967305
La	0.35128995	0.9540963	0.6559725
La	0.3500924	0.95409945	0.7809893
La	0.34996735	0.9540488	0.90515795
La	0.4521513	0.0500832	0.0329293
La	0.4516155	0.0507681	0.1579676
La	0.45086535	0.05237135	0.28213645
La	0.4500395	0.05146305	0.40600185
La	0.45161325	0.0511075	0.52901815
La	0.4493773	0.05521805	0.65551865
La	0.4514472	0.04764725	0.780596
La	0.45080305	0.049464	0.9056283
La	0.4547944	0.15445395	0.03086275
La	0.4519156	0.15345945	0.15836375
La	0.45283855	0.15309585	0.28508295
La	0.45189115	0.1517286	0.40695185
La	0.4518304	0.15302715	0.5315587
La	0.45283095	0.1554983	0.6560627
La	0.4562497	0.15697415	0.78653735
La	0.4519538	0.15440545	0.9062327
La	0.45379025	0.26135425	0.0280945
La	0.4550492	0.2559958	0.1561533
La	0.45514285	0.25574605	0.28113695
La	0.453538	0.25613945	0.40543705
La	0.45176045	0.2574236	0.52888055
La	0.4495612	0.2623031	0.65613905
La	0.45338825	0.258512	0.7802222
La	0.45312705	0.25653725	0.90761765
La	0.4519713	0.35601305	0.03064355
La	0.4525822	0.35965975	0.1546003
La	0.45235195	0.3537257	0.282116
La	0.45391385	0.35581065	0.4065855
La	0.4524728	0.3572449	0.52950925
La	0.4522826	0.35766635	0.65559705
La	0.45103085	0.35692435	0.7799932
La	0.4527881	0.35633575	0.9047802
La	0.4522595	0.4554963	0.0312408
La	0.4512741	0.45488535	0.15559345
La	0.451637	0.4530381	0.28176675
La	0.4500506	0.4555534	0.4056003
La	0.4495919	0.45472315	0.5304132
La	0.45048385	0.45162325	0.655985
La	0.45195905	0.45485535	0.7825773
La	0.45137425	0.45457685	0.9043311
La	0.4510854	0.55297405	0.0320232
La	0.4533716	0.5537785	0.15661725
La	0.45201525	0.552979	0.2839483
La	0.4509749	0.55242525	0.407639
La	0.45132755	0.54964745	0.5313986
La	0.450441	0.54816685	0.65617025
La	0.45216045	0.55266365	0.7818935
La	0.45109985	0.54965375	0.90550085
La	0.45377535	0.65602515	0.0300618
La	0.453371	0.653397	0.15789455
La	0.45468105	0.65600595	0.28237725
La	0.45217915	0.65555945	0.404928
La	0.45155215	0.65735305	0.5290253
La	0.45289575	0.6547727	0.6542361
La	0.4525467	0.6548319	0.7823484
La	0.45174615	0.6591707	0.90786645
La	0.4526163	0.75977635	0.03117635
La	0.4515577	0.75636915	0.1576855
La	0.4525099	0.75795905	0.2811721
La	0.4495849	0.758213	0.40594465
La	0.44738655	0.76387515	0.52914565
La	0.44970655	0.75852025	0.6561011
La	0.4469882	0.76191565	0.78157575
La	0.45271825	0.75758255	0.9068187
La	0.45141815	0.85742405	0.0312435
La	0.4503293	0.85702985	0.1568063
La	0.4501746	0.8570558	0.2803
La	0.4497797	0.8567058	0.4039893
La	0.44913275	0.8573107	0.52863765
La	0.4501387	0.8549008	0.65503215
La	0.4506217	0.8568249	0.7824622
La	0.4518291	0.85506215	0.90618095
La	0.44968115	0.95425945	0.0325734
La	0.45106385	0.9553645	0.15636105
La	0.45153365	0.95431815	0.280913
La	0.4498109	0.9541057	0.4055377
La	0.45084085	0.95378545	0.53045975
La	0.4483367	0.95356225	0.65571965
La	0.45082255	0.9536017	0.7806929
La	0.45147395	0.9531365	0.90557055
La	0.55100095	0.0533529	0.0324479
La	0.55124475	0.0514441	0.1566279
La	0.5504281	0.053735	0.2816565
La	0.55064205	0.0536966	0.40472065
La	0.54959945	0.0534647	0.52992365
La	0.55049345	0.05450055	0.65688635
La	0.55130285	0.0514466	0.78253215
La	0.5519631	0.0525956	0.90839445
La	0.553484	0.15275435	0.0328992
La	0.55108435	0.1507725	0.158172
La	0.5517642	0.1528639	0.28145695
La	0.55110965	0.15181665	0.4067226
La	0.5508394	0.1532873	0.52958125
La	0.5540527	0.15543805	0.65676895
La	0.5555674	0.15605935	0.7809997
La	0.55454705	0.1552319	0.90653845
La	0.5554362	0.2548319	0.03313615
La	0.5537951	0.2537623	0.15755995
La	0.553013	0.25739885	0.28318885
La	0.5510367	0.2548625	0.40680925
La	0.55617945	0.2663996	0.52613245
La	0.5553548	0.26154105	0.65672485
La	0.55502225	0.25644335	0.78183625
La	0.555126	0.260296	0.90579925
La	0.5541287	0.3563087	0.0317768
La	0.5503683	0.3582908	0.1551714
La	0.55253095	0.35629745	0.28244565
La	0.5506609	0.35575575	0.406154
La	0.55139885	0.35854435	0.53037085
La	0.55102745	0.35477015	0.65570105
La	0.5526648	0.3548735	0.78128695
La	0.55259925	0.3568528	0.90455315
La	0.5528751	0.45646435	0.0314279
La	0.5507198	0.4569747	0.1559272
La	0.5519492	0.4553984	0.28047245
La	0.5514894	0.45406705	0.4072642
La	0.5526105	0.4550002	0.53121195
La	0.5513343	0.45313555	0.65770795
La	0.5514581	0.45369005	0.7816596
La	0.55101225	0.4558025	0.906425
La	0.55195175	0.55497915	0.0307919
La	0.5526967	0.5556942	0.15673955
La	0.5525016	0.55330265	0.2824205
La	0.55329735	0.55409815	0.4059853
La	0.55210775	0.55123405	0.5309464
La	0.5509992	0.5519298	0.65571015
La	0.55164015	0.55148185	0.78057255
La	0.5532345	0.55472455	0.90692255
La	0.55314175	0.65716295	0.0329633
La	0.55330445	0.65605635	0.15638315
La	0.55426315	0.65370765	0.28268995
La	0.5523329	0.6545996	0.40693445
La	0.553218	0.6557168	0.5326384
La	0.5522314	0.6505345	0.6556163
La	0.5542942	0.66854185	0.7776949
La	0.5533302	0.654273	0.9078831
La	0.55162515	0.75540735	0.0309197
La	0.54885955	0.7629685	0.155994
La	0.55096125	0.7577699	0.27981495
La	0.54929285	0.7590001	0.4044249
La	0.5475952	0.7595656	0.52825985
La	0.5468487	0.76311035	0.65525415
La	0.5549531	0.75662605	0.78145135
La	0.55302445	0.75590765	0.9072046
La	0.55214285	0.855491	0.0307769
La	0.55009755	0.85669	0.1562142
La	0.5496124	0.854456	0.28054335
La	0.54815195	0.8557012	0.40406635
La	0.54859605	0.8567903	0.5291394
La	0.55022815	0.8583112	0.6540472
La	0.5493058	0.8574406	0.7818498
La	0.55244765	0.85454805	0.9065315
La	0.54819315	0.95436975	0.03096605
La	0.55026695	0.9533701	0.15629735
La	0.5502104	0.95536585	0.2816506
La	0.54906965	0.95431195	0.40579835
La	0.54777995	0.9554469	0.5295893
La	0.5489337	0.95487045	0.65430105
La	0.5494004	0.9537819	0.78023165
La	0.5499846	0.95382005	0.90736985
La	0.6509623	0.0525161	0.0307948
La	0.6513992	0.053437	0.157385
La	0.64904665	0.05407845	0.28021495
La	0.6496728	0.05264135	0.4046057
La	0.64948995	0.05359865	0.53118625
La	0.6511086	0.05391775	0.6570735
La	0.6520333	0.0529239	0.781735
La	0.65162905	0.0530426	0.9061239
La	0.6522919	0.15423955	0.0310293
La	0.65185645	0.15355915	0.1576687
La	0.65104515	0.1539693	0.2817001
La	0.65051725	0.15542845	0.40472125
La	0.65226665	0.15435415	0.53584655
La	0.6513429	0.15500725	0.6579657
La	0.65296035	0.1547001	0.78180605
La	0.65533125	0.15800805	0.9062284
La	0.65506395	0.25566435	0.03059745
La	0.65214695	0.25584455	0.1574655
La	0.652541	0.2560752	0.2825629
La	0.65085145	0.254071	0.4062806
La	0.6542368	0.25576335	0.5310494
La	0.65371855	0.2560149	0.6570486
La	0.65286945	0.25446295	0.7811511
La	0.65370325	0.25594025	0.9063837
La	0.6492814	0.35876665	0.0292264
La	0.65163845	0.35659005	0.15726955
La	0.652445	0.35675645	0.2821827
La	0.65245345	0.3558767	0.40696365
La	0.65167605	0.356024	0.5303751
La	0.65260635	0.3575122	0.6562273
La	0.65194855	0.3541293	0.7822634
La	0.6518015	0.3565622	0.90662825
La	0.65318965	0.4542661	0.03087015
La	0.6506419	0.4545252	0.1537417
La	0.6495248	0.4542862	0.2800222
La	0.65165855	0.45501005	0.40645165
La	0.6493485	0.45209075	0.53115105
La	0.64884975	0.45311285	0.65651975
La	0.6516306	0.45450165	0.78176705
La	0.6512841	0.4530261	0.9068484
La	0.65194355	0.55366325	0.0305908
La	0.65051215	0.55432535	0.157769
La	0.6502935	0.5545324	0.2830976
La	0.65111835	0.55504695	0.4067239
La	0.6509347	0.5500429	0.5314001
La	0.65217395	0.5525794	0.65696695
La	0.6534357	0.5554648	0.7833542
La	0.65101905	0.55421415	0.90691805
La	0.65243975	0.6545447	0.02954585
La	0.6501591	0.6551892	0.15770045
La	0.65082735	0.6529831	0.28145445
La	0.6509339	0.65459025	0.405703
La	0.65212335	0.6678892	0.5311675
La	0.6530517	0.6571285	0.6585352
La	0.6533966	0.6535258	0.7820121
La	0.6517537	0.6531322	0.9072626
La	0.6523243	0.75518645	0.03132675
La	0.6507964	0.75617355	0.15540965
La	0.6503721	0.75674615	0.28052005
La	0.6478391	0.75961665	0.4047094
La	0.64436445	0.7636351	0.53001095
La	0.65182075	0.7549296	0.6582002
La	0.65287735	0.75609	0.78292005
La	0.65142735	0.75608285	0.909133
La	0.6500975	0.85515615	0.0306369
La	0.6497235	0.85551625	0.15584825
La	0.6498985	0.854589	0.27824045
La	0.64842795	0.85414105	0.40370955
La	0.647104	0.85587405	0.52921195
La	0.648192	0.85611735	0.656693
La	0.65159995	0.8539646	0.78323405
La	0.65068875	0.85495505	0.90713775
La	0.6511597	0.9539999	0.0315956
La	0.64985755	0.9535441	0.1560228
La	0.64886895	0.954353	0.2799885
La	0.6478197	0.9552179	0.4039536
La	0.6479351	0.95564185	0.5292385
La	0.6481793	0.9556546	0.65687465
La	0.65068085	0.95411555	0.78289955
La	0.65184825	0.9542032	0.90672325
La	0.74994735	0.0546187	0.03125915
La	0.7489997	0.0536686	0.15571045
La	0.7500071	0.05528165	0.2799595
La	0.7482389	0.05636605	0.4063068
La	0.7487513	0.0548489	0.5328648
La	0.7495825	0.0550517	0.6558591
La	0.75269595	0.05514715	0.7816586
La	0.7512375	0.05569145	0.90681205
La	0.752953	0.1534998	0.0299043
La	0.75084815	0.15423045	0.1568501
La	0.7508794	0.1549661	0.28128595
La	0.74924855	0.153818	0.40533365
La	0.75083445	0.1539479	0.5303855
La	0.75332805	0.15462225	0.6576668
La	0.75441425	0.1592198	0.78348415
La	0.7524974	0.15427175	0.906623
La	0.7528675	0.25411825	0.0313643
La	0.75235605	0.2552364	0.15575605
La	0.75142505	0.25541035	0.28045705
La	0.7498849	0.25464735	0.40761345
La	0.7527817	0.2564303	0.52957265
La	0.75230015	0.25520395	0.6567872
La	0.7517099	0.2555317	0.7821775
La	0.75400905	0.2562536	0.90614955
La	0.75250245	0.3548686	0.030581
La	0.7508584	0.3566606	0.1556845
La	0.75095475	0.3556301	0.2812595
La	0.75091595	0.3545967	0.40530065
La	0.74930865	0.3560011	0.53086925
La	0.7518943	0.3548627	0.65631375
La	0.7511829	0.35552795	0.7815012
La	0.7520919	0.35450555	0.90580695
La	0.7527052	0.45577545	0.03062695
La	0.7513382	0.4553289	0.15551335
La	0.75225375	0.45581135	0.2806763
La	0.75160775	0.45366995	0.40660245
La	0.75117955	0.45322775	0.5317396
La	0.75031095	0.45442075	0.6570579
La	0.7514679	0.45481305	0.78216195
La	0.7514778	0.4546879	0.9053766
La	0.7513489	0.55365355	0.02988205
La	0.75071785	0.5548039	0.1564654
La	0.7490687	0.5543212	0.2815364
La	0.7507534	0.55276435	0.4056833
La	0.74949745	0.5502648	0.53139205
La	0.7521117	0.55242025	0.6567005
La	0.7546873	0.5559028	0.78255345
La	0.75210105	0.553758	0.90592635
La	0.7506859	0.65359535	0.03024615
La	0.74978835	0.6559912	0.1553389
La	0.7497	0.65434305	0.2798825
La	0.75024695	0.65391505	0.40695035
La	0.75114965	0.6529776	0.53332355
La	0.75301915	0.65267275	0.6581347
La	0.7524634	0.65513565	0.7833262
La	0.7511797	0.65364305	0.9064803
La	0.75152695	0.75513395	0.0300364
La	0.74844125	0.75529485	0.15546005
La	0.7505821	0.7552882	0.28029015
La	0.75055145	0.75466755	0.40527435
La	0.7502906	0.75360925	0.5299965
La	0.75431325	0.75426315	0.65834045
La	0.75348385	0.7536921	0.7816203
La	0.75167045	0.75459025	0.90722685
La	0.7507395	0.8556061	0.02973985
La	0.7489621	0.85618125	0.156031
La	0.74774695	0.85596615	0.2806905
La	0.74760495	0.85622045	0.4035078
La	0.7488103	0.857373	0.52862415
La	0.7521666	0.85435855	0.65862125
La	0.75072365	0.8544969	0.7831735
La	0.75024145	0.85643475	0.90696215
La	0.7495368	0.955257	0.0312081
La	0.74901015	0.9563158	0.1552494
La	0.7461659	0.95548575	0.28103845
La	0.7465408	0.9541121	0.404035
La	0.7460605	0.9557682	0.52909475
La	0.74796045	0.9554876	0.65552225
La	0.7523099	0.95467555	0.7822424
La	0.75224115	0.9550653	0.90703355
La	0.85056805	0.05453765	0.0307371
La	0.8501738	0.05409095	0.15502885
La	0.84870815	0.05466405	0.28127345
La	0.84779535	0.05261585	0.4056929
La	0.8531485	0.0551228	0.53148365
La	0.8520492	0.05380845	0.65829045
La	0.85238725	0.0544258	0.7826613
La	0.85090105	0.05452305	0.90566045
La	0.85149935	0.15471625	0.0297978
La	0.84830755	0.15502925	0.15603405
La	0.8481002	0.1545264	0.2815404
La	0.8474905	0.15402885	0.40569565
La	0.8536111	0.1558085	0.5319236
La	0.85163405	0.1545218	0.65884245
La	0.85236825	0.15520735	0.78342985
La	0.85043515	0.15629095	0.90605945
La	0.85211095	0.25496975	0.0295126
La	0.8489788	0.25500055	0.15505025
La	0.85092	0.25585805	0.2815223
La	0.84967935	0.25439915	0.4074107
La	0.8529967	0.2573646	0.5313889
La	0.85305765	0.2572212	0.6564051
La	0.8522103	0.25595265	0.78127515
La	0.85060625	0.2556474	0.90556815
La	0.8507526	0.3585584	0.03169465
La	0.8485532	0.35877025	0.15511215
La	0.8507795	0.35645425	0.279816
La	0.85147275	0.35467715	0.4071411
La	0.85114275	0.35648125	0.5328057
La	0.85186465	0.35466885	0.6566618
La	0.85219335	0.3561171	0.7809797
La	0.8516613	0.3546494	0.90583125
La	0.8515177	0.4549437	0.0308523
La	0.84961765	0.4538688	0.1551174
La	0.85263435	0.4531532	0.2813184
La	0.8513626	0.45477305	0.40644715
La	0.85089055	0.45504085	0.53159915
La	0.8507615	0.45437115	0.65659445
La	0.85143425	0.455329	0.77891045
La	0.8511091	0.45403635	0.90544735
La	0.8507924	0.55524235	0.0295369
La	0.8514868	0.5547687	0.1564404
La	0.8513912	0.55577505	0.28123595
La	0.8509378	0.55293475	0.40607175
La	0.85293915	0.55380965	0.53047535
La	0.8522168	0.55298795	0.6579852
La	0.8506482	0.55451465	0.78225185
La	0.8518423	0.5548541	0.9072287
La	0.84996375	0.65563955	0.03060655
La	0.84833145	0.6568605	0.1555537
La	0.8475073	0.65462395	0.2803723
La	0.85153775	0.6538027	0.40740325
La	0.8501461	0.6547372	0.53236935
La	0.8519576	0.6532625	0.6586433
La	0.85251615	0.652591	0.78158515
La	0.8508581	0.65422085	0.90607795
La	0.8510917	0.75534475	0.03111775
La	0.84969875	0.75474455	0.15446125
La	0.8519743	0.7552393	0.2795682
La	0.84966855	0.7564964	0.40488095
La	0.85405615	0.7545962	0.53080655
La	0.85246515	0.75403815	0.65791495
La	0.8535639	0.7543629	0.7837271
La	0.8512958	0.75502155	0.90557825
La	0.849819	0.85565395	0.03010645
La	0.85058215	0.8549326	0.1558667
La	0.8489691	0.8554938	0.27715755
La	0.8481861	0.855021	0.40599865
La	0.8519783	0.85569045	0.5307329
La	0.8531452	0.85528865	0.6586279
La	0.85383405	0.8569842	0.7816284
La	0.8521817	0.8542159	0.9060019
La	0.8507849	0.95559315	0.03012325
La	0.8464732	0.95606885	0.15535595
La	0.8482434	0.9544515	0.27989325
La	0.8475064	0.95693995	0.40525645
La	0.8533576	0.9542225	0.53247155
La	0.85219255	0.9560503	0.65759925
La	0.85156205	0.954503	0.78272605
La	0.85046765	0.95495595	0.90769675
La	0.9493395	0.05392595	0.03076325
La	0.94969215	0.05381225	0.1569273
La	0.94956935	0.0548613	0.28164045
La	0.95537125	0.0552291	0.40687125
La	0.95414225	0.05650555	0.5326437
La	0.95333645	0.055755	0.65802915
La	0.95314645	0.054216	0.78150825
La	0.95122785	0.0543755	0.90605785
La	0.94861755	0.15450925	0.02983395
La	0.9489528	0.15473665	0.15511195
La	0.94839295	0.15428835	0.28028995
La	0.95215175	0.15621895	0.40452595
La	0.95197875	0.15559555	0.53089295
La	0.95208615	0.15625355	0.65811895
La	0.95048535	0.15570525	0.78212815
La	0.9505817	0.15536895	0.90543245
La	0.94987235	0.2536329	0.0292996
La	0.94959735	0.2555135	0.157301
La	0.9489466	0.2549805	0.28058425
La	0.94665005	0.2684708	0.4047072
La	0.95209135	0.25319225	0.53316265
La	0.9514688	0.25442235	0.6570969
La	0.9511868	0.25430525	0.78210325
La	0.949038	0.2555887	0.9048317
La	0.94992945	0.3555681	0.02926385
La	0.9504415	0.35640765	0.1541847
La	0.95117465	0.35682155	0.2805116
La	0.94998275	0.35430785	0.40712725
La	0.94999345	0.3575	0.5318297
La	0.9474411	0.36525055	0.65792945
La	0.9496276	0.35576295	0.7804864
La	0.94982565	0.3546006	0.90505235
La	0.9519868	0.45373715	0.0299927
La	0.95109405	0.45405765	0.15568295
La	0.95107965	0.45526975	0.2792523
La	0.9520547	0.45362765	0.4064302
La	0.95033475	0.4541477	0.5329633
La	0.94969725	0.45441525	0.65738915
La	0.95039265	0.4554659	0.78065045
La	0.95150965	0.453833	0.9059081
La	0.94969785	0.55387045	0.0296913
La	0.94936985	0.5525508	0.15433135
La	0.95065865	0.55114505	0.2817797
La	0.9509599	0.55448875	0.40569605
La	0.9516808	0.55254205	0.53255205
La	0.9511677	0.55274265	0.656976
La	0.95131405	0.55329075	0.7812766
La	0.9509224	0.55359805	0.90600165
La	0.9488858	0.6550985	0.02969855
La	0.94910535	0.6532264	0.1557167
La	0.949906	0.6515798	0.2814933
La	0.9525482	0.65429725	0.40775295
La	0.951686	0.6530978	0.53185275
La	0.952701	0.6546895	0.6563382
La	0.9519266	0.65478545	0.7831431
La	0.9501991	0.653224	0.9064343
La	0.9501947	0.75484095	0.0309794
La	0.9507877	0.7543898	0.15441215
La	0.9507373	0.75468485	0.28124985
La	0.95404125	0.7569017	0.40853555
La	0.9527289	0.75618865	0.5327099
La	0.95022995	0.7650621	0.65296175
La	0.95132465	0.7538061	0.78256065
La	0.94915505	0.7541342	0.90582385
La	0.95018725	0.855313	0.03075605
La	0.9500399	0.8547518	0.15460345
La	0.94074905	0.8641247	0.28106555
La	0.95616015	0.85964785	0.4067869
La	0.95499975	0.8558517	0.5324113
La	0.9534181	0.85556935	0.65858095
La	0.9504547	0.8565595	0.78230645
La	0.9517819	0.85517205	0.90662585
La	0.95148495	0.95430425	0.029849
La	0.94926895	0.9548066	0.15347415
La	0.95246295	0.954525	0.2802492
La	0.95185295	0.9567536	0.40547165
La	0.95591175	0.96033195	0.52886125
La	0.9536707	0.9547006	0.6576862
La	0.953457	0.95599175	0.78234075
La	0.9525661	0.9540312	0.906862
Mn	0.99878805	0.0503456	0.00149025
Mn	0.99849445	0.052021	0.125658
Mn	0.99971475	0.05028615	0.24698425
Mn	0.0012572	0.0510222	0.37434635
Mn	0.0014971	0.0494068	0.5017409
Mn	0.00214855	0.0486275	0.62619065
Mn	0.0012269	0.0502766	0.75142065
Mn	0.0004724	0.0488293	0.87363785
Mn	0.99786255	0.14744705	0.99845655
Mn	0.9994948	0.1515034	0.1232824
Mn	0.9979742	0.14921105	0.24763285
Mn	0.998414	0.1486372	0.37507085
Mn	0.00412635	0.1487127	0.5010315
Mn	0.99958715	0.1505509	0.62746255
Mn	0.99953075	0.15062605	0.7505586
Mn	0.99920925	0.14860875	0.87488695
Mn	0.9968471	0.25159915	0.99812365
Mn	0.9999132	0.24966335	0.1247531
Mn	0.99943945	0.24852905	0.24937915
Mn	0.9978476	0.2500057	0.3755291
Mn	0.0015966	0.25112415	0.5025707
Mn	0.9980802	0.25106355	0.6254855
Mn	0.0006791	0.2502424	0.7509582
Mn	0.99726405	0.2509627	0.87423725
Mn	0.9992074	0.35101205	0.9994566
Mn	0.9979326	0.3504371	0.123738
Mn	0.9988207	0.3497633	0.2494306
Mn	0.9995988	0.35162475	0.37390665
Mn	0.00075105	0.3493421	0.50082235
Mn	0.9980101	0.3515628	0.6246957
Mn	0.9979074	0.3505057	0.74903505
Mn	0.99940455	0.34961335	0.87514495
Mn	0.00078485	0.4501562	0.9990288
Mn	0.99950185	0.4504506	0.12391495
Mn	8.08E-05	0.4499615	0.25006195
Mn	0.9993288	0.45051325	0.3740995
Mn	0.99877205	0.44841025	0.5009129
Mn	0.9994163	0.4510618	0.6245797
Mn	0.99897275	0.448855	0.75058495
Mn	0.9993237	0.4506289	0.87404195
Mn	0.9999346	0.54782625	0.99864115
Mn	0.99657655	0.54968335	0.123694
Mn	0.0001628	0.54788765	0.25142445
Mn	0.0013184	0.54791495	0.37473565
Mn	0.9984437	0.55095655	0.500807
Mn	0.00036335	0.5498923	0.62640745
Mn	0.99954885	0.5498074	0.74857025
Mn	0.999719	0.54739725	0.8732124
Mn	0.99877225	0.6465931	0.99814445
Mn	0.9984982	0.647121	0.1225762
Mn	0.9995017	0.6488136	0.24747415
Mn	0.99718365	0.6482632	0.3750552
Mn	0.9993598	0.649038	0.5027917
Mn	0.0019011	0.64723915	0.62450115
Mn	0.0001031	0.64915985	0.7505524
Mn	0.00014435	0.6487532	0.87546415
Mn	0.99986205	0.7507144	0.99827855
Mn	0.9955443	0.7536777	0.12298795
Mn	0.99793915	0.7522675	0.25029665
Mn	0.9976297	0.75366655	0.377046
Mn	0.99984955	0.75190485	0.5027253
Mn	0.0008561	0.7492251	0.6250604
Mn	0.99891655	0.75133775	0.75137395
Mn	0.9996551	0.74863305	0.87311015
Mn	0.00059215	0.84951995	0.99952265
Mn	0.99971465	0.8516065	0.12448605
Mn	0.99818515	0.8512723	0.2466691
Mn	0.0014857	0.8493349	0.37420205
Mn	0.0026493	0.8521425	0.5005927
Mn	0.0017813	0.8504618	0.62604645
Mn	0.00142065	0.85136405	0.7514311
Mn	0.9992149	0.85000285	0.87393635
Mn	0.9995824	0.94852815	0.9996847
Mn	0.0022994	0.94971765	0.1249069
Mn	0.0003257	0.9498624	0.2474821
Mn	0.00229085	0.95188105	0.37552535
Mn	0.00383435	0.94750535	0.50063445
Mn	0.00291165	0.9494044	0.6268392
Mn	0.0010562	0.9497317	0.75153685
Mn	0.00084485	0.9499601	0.876894
Mn	0.09998215	0.04985405	0.0004798
Mn	0.0997901	0.0472678	0.12551695
Mn	0.1008144	0.0501263	0.25040995
Mn	0.101349	0.0491732	0.37444545
Mn	0.1036323	0.0480496	0.50258245
Mn	0.1027262	0.04888305	0.626021
Mn	0.0994622	0.05106615	0.7497941
Mn	0.09799525	0.04896905	0.874013
Mn	0.0980641	0.1510854	0.9984129
Mn	0.0997673	0.1476334	0.12494525
Mn	0.0984787	0.1479332	0.25161875
Mn	0.10468745	0.1467432	0.3769416
Mn	0.0988577	0.1499456	0.50192485
Mn	0.10098885	0.1492875	0.6269727
Mn	0.0989567	0.15024185	0.7515256
Mn	0.10003785	0.1503712	0.875101
Mn	0.09675405	0.253249	0.9995379
Mn	0.09591185	0.25432205	0.12276115
Mn	0.098536	0.25081045	0.24837995
Mn	0.1015782	0.2494847	0.37616535
Mn	0.100343	0.2526853	0.50090145
Mn	0.09872755	0.25277645	0.62637625
Mn	0.09808225	0.25045715	0.74994645
Mn	0.09795125	0.25139115	0.87578555
Mn	0.0984457	0.34985345	0.9974179
Mn	0.09745235	0.35184565	0.1231331
Mn	0.0991681	0.35025035	0.2503058
Mn	0.09939595	0.3509498	0.3720447
Mn	0.09886705	0.35354805	0.49917465
Mn	0.09955245	0.3521355	0.62584935
Mn	0.0983824	0.35204035	0.74927715
Mn	0.0980257	0.3535901	0.87527855
Mn	0.09990125	0.45028395	0.9989501
Mn	0.09972835	0.44922375	0.1220892
Mn	0.09767365	0.4518655	0.2487975
Mn	0.10043995	0.45032105	0.3788964
Mn	0.10024275	0.44992255	0.50083805
Mn	0.09786045	0.45235115	0.62483635
Mn	0.0984344	0.4510125	0.7498688
Mn	0.0998956	0.4512627	0.8748995
Mn	0.0989321	0.5474988	0.9982471
Mn	0.09569695	0.54806075	0.11949715
Mn	0.101286	0.54862785	0.2502388
Mn	0.09997285	0.5475984	0.37486595
Mn	0.1003151	0.54847035	0.50093305
Mn	0.10113615	0.55058955	0.62535615
Mn	0.10025185	0.54887705	0.7498924
Mn	0.09998985	0.5483408	0.87468135
Mn	0.09861	0.64991485	0.99886015
Mn	0.09906315	0.64930145	0.12300555
Mn	0.1001946	0.6481994	0.24870595
Mn	0.1011623	0.6495487	0.3755072
Mn	0.10432895	0.6478819	0.5014082
Mn	0.10197725	0.64749835	0.62830045
Mn	0.0984583	0.64946455	0.7498593
Mn	0.0978699	0.64901925	0.8754564
Mn	0.1000677	0.7482888	0.9984566
Mn	0.0980787	0.7512778	0.12440365
Mn	0.0999453	0.75011915	0.251074
Mn	0.099536	0.75361065	0.3793958
Mn	0.103813	0.75033775	0.5034472
Mn	0.10189645	0.74933425	0.62828745
Mn	0.1003569	0.74859265	0.75100455
Mn	0.0976367	0.75069335	0.87495845
Mn	0.10163985	0.85033065	0.9997717
Mn	0.0991857	0.8528491	0.12190225
Mn	0.10045195	0.85039075	0.25097155
Mn	0.10245465	0.85083245	0.37603425
Mn	0.1028017	0.8517155	0.50014015
Mn	0.10137825	0.84972	0.62372915
Mn	0.10007765	0.84917725	0.74883745
Mn	0.0994954	0.85033805	0.87439705
Mn	0.0993452	0.94909245	0.9987556
Mn	0.10115385	0.94927415	0.12551305
Mn	0.101172	0.9489026	0.24913975
Mn	0.1035243	0.9510192	0.37471125
Mn	0.1031705	0.9499168	0.49983835
Mn	0.10238055	0.9494584	0.6254762
Mn	0.09978385	0.94992205	0.750926
Mn	0.1012956	0.9502491	0.8734501
Mn	0.20082875	0.04765965	0.0001511
Mn	0.2018116	0.0483501	0.1266008
Mn	0.199674	0.04699455	0.24970185
Mn	0.20165775	0.04891325	0.37557455
Mn	0.20191545	0.0455912	0.50050985
Mn	0.20236925	0.0494462	0.6238865
Mn	0.19988475	0.04958175	0.75065835
Mn	0.2003768	0.0477794	0.8725088
Mn	0.19867255	0.14873825	0.99807105
Mn	0.1984645	0.1490139	0.12447575
Mn	0.200438	0.1481338	0.25114295
Mn	0.20379975	0.14680885	0.37896325
Mn	0.20180145	0.1440751	0.5019907
Mn	0.19976585	0.1477244	0.6236994
Mn	0.2010893	0.14812055	0.74915995
Mn	0.1981456	0.1478286	0.87366815
Mn	0.19846835	0.2521416	0.9985063
Mn	0.1938347	0.25843155	0.1248988
Mn	0.20308535	0.2491318	0.2536879
Mn	0.2014966	0.2487175	0.3749412
Mn	0.1993637	0.2516018	0.4999604
Mn	0.1994145	0.2516097	0.62544705
Mn	0.19809605	0.2545542	0.75190675
Mn	0.1951367	0.2559733	0.87615075
Mn	0.19661595	0.353313	0.9973458
Mn	0.19935165	0.353554	0.12272225
Mn	0.20034765	0.350273	0.2512418
Mn	0.1995034	0.3517083	0.37540685
Mn	0.20016695	0.35112615	0.50094275
Mn	0.1978505	0.35166395	0.6252025
Mn	0.1991015	0.35150755	0.7499244
Mn	0.19859075	0.3526695	0.8734172
Mn	0.1982925	0.4509812	0.0001539
Mn	0.2014077	0.4496474	0.12431115
Mn	0.19997985	0.45018065	0.24823675
Mn	0.2012925	0.44994525	0.37444345
Mn	0.1995661	0.44932945	0.5008785
Mn	0.20120715	0.44981765	0.6256673
Mn	0.1988818	0.44805125	0.74936235
Mn	0.1999513	0.4506271	0.8708247
Mn	0.2003991	0.54809075	0.99922645
Mn	0.20065835	0.5455686	0.1252302
Mn	0.20443115	0.54536145	0.2532947
Mn	0.20111205	0.5489982	0.3765066
Mn	0.20054375	0.548916	0.49900455
Mn	0.2000748	0.54872855	0.6244461
Mn	0.19890845	0.55001465	0.7498889
Mn	0.1993669	0.549348	0.8738535
Mn	0.2011259	0.6474675	0.998903
Mn	0.20141895	0.64868035	0.12457
Mn	0.1998727	0.6483765	0.2526967
Mn	0.20273135	0.648328	0.376448
Mn	0.20011205	0.64824915	0.4984625
Mn	0.200464	0.64696485	0.62771515
Mn	0.19830175	0.6488926	0.7497793
Mn	0.199257	0.6482019	0.87388495
Mn	0.1992496	0.75003935	0.0015558
Mn	0.20096845	0.7512843	0.1240378
Mn	0.2005436	0.7502741	0.24991665
Mn	0.19617235	0.75655775	0.37737175
Mn	0.19981135	0.7501803	0.5010077
Mn	0.19978065	0.7499932	0.6244471
Mn	0.2005442	0.7529445	0.7530306
Mn	0.1957261	0.7555943	0.87429915
Mn	0.19907375	0.85137525	0.99759555
Mn	0.19927865	0.85105095	0.123615
Mn	0.2022824	0.8510601	0.25092055
Mn	0.20243845	0.8522615	0.3758282
Mn	0.20041365	0.85161675	0.499671
Mn	0.20121205	0.8502395	0.627682
Mn	0.20098715	0.8536556	0.75035165
Mn	0.2004022	0.8503694	0.87286075
Mn	0.19941895	0.9515356	0.99835425
Mn	0.2017379	0.9508008	0.1244765
Mn	0.20273455	0.94911355	0.2524187
Mn	0.20244285	0.9504897	0.37646995
Mn	0.2009696	0.95002515	0.49994085
Mn	0.20195025	0.94891795	0.62553415
Mn	0.1994811	0.948686	0.75147955
Mn	0.20075595	0.9508033	0.874578
Mn	0.2987533	0.0477122	0.00120445
Mn	0.3006106	0.0464213	0.12541435
Mn	0.30174145	0.0482547	0.25110875
Mn	0.30170895	0.04835535	0.3774734
Mn	0.3033115	0.04963165	0.4998844
Mn	0.30085835	0.04670065	0.6235694
Mn	0.30058305	0.0497664	0.7500021
Mn	0.2999186	0.0480631	0.8753589
Mn	0.3029379	0.14331555	0.9993505
Mn	0.30000535	0.1474495	0.1271214
Mn	0.3026044	0.1475278	0.2517568
Mn	0.30207535	0.1450506	0.37532715
Mn	0.3027017	0.14508085	0.49907185
Mn	0.3009464	0.1465726	0.6229798
Mn	0.29924775	0.14518785	0.75245105
Mn	0.29989175	0.1452525	0.8736854
Mn	0.30010335	0.2477409	0.0020529
Mn	0.2988205	0.25076435	0.1256861
Mn	0.30206735	0.24832865	0.251346
Mn	0.3047174	0.2426869	0.3720002
Mn	0.30136085	0.25107195	0.49958825
Mn	0.2975486	0.25561925	0.62329915
Mn	0.29594025	0.2486949	0.7469042
Mn	0.29931325	0.2523525	0.87267645
Mn	0.29739225	0.35140525	0.99683385
Mn	0.29890695	0.35361065	0.12349315
Mn	0.29909125	0.34962115	0.2509791
Mn	0.2991908	0.3538437	0.37582955
Mn	0.30077155	0.3531866	0.50040965
Mn	0.29655845	0.3530491	0.62474915
Mn	0.30068855	0.3480807	0.7464666
Mn	0.29996905	0.35263205	0.87450465
Mn	0.29887645	0.44945305	0.99821255
Mn	0.3002966	0.45081105	0.12457905
Mn	0.29897755	0.45076625	0.2511008
Mn	0.3017121	0.45116475	0.3770773
Mn	0.3012575	0.45012625	0.50139035
Mn	0.30051645	0.4501823	0.6256427
Mn	0.2999441	0.4513231	0.7490611
Mn	0.3000621	0.4499946	0.8720018
Mn	0.3039635	0.54507	0.9989039
Mn	0.30029445	0.55068405	0.126284
Mn	0.301755	0.5479682	0.25081615
Mn	0.3008921	0.547883	0.37679155
Mn	0.30147835	0.54934745	0.5017555
Mn	0.29930155	0.5480139	0.624606
Mn	0.3005034	0.5487539	0.7506596
Mn	0.29938135	0.5492207	0.8734457
Mn	0.3015995	0.64728	0.0002161
Mn	0.301287	0.6505539	0.12590775
Mn	0.30247865	0.64792675	0.25213765
Mn	0.30126855	0.65034785	0.37777415
Mn	0.29850005	0.6487789	0.49873395
Mn	0.29875595	0.64459625	0.6244244
Mn	0.2992139	0.6488803	0.74920735
Mn	0.29998185	0.6473355	0.87570315
Mn	0.29972995	0.7499016	0.9983743
Mn	0.3007099	0.7535802	0.12356915
Mn	0.30357895	0.74900665	0.250814
Mn	0.3013127	0.757566	0.3756508
Mn	0.3020541	0.75036985	0.50200205
Mn	0.29942755	0.7509738	0.6269453
Mn	0.29485715	0.7575364	0.75057985
Mn	0.2988873	0.7540324	0.8753795
Mn	0.299339	0.85169165	0.9983932
Mn	0.30027195	0.8521187	0.12342385
Mn	0.3013849	0.85051745	0.24893845
Mn	0.30241455	0.85182385	0.37640155
Mn	0.3026594	0.85378325	0.50056675
Mn	0.3010288	0.851714	0.62424495
Mn	0.3008468	0.8523808	0.751929
Mn	0.2991692	0.85243615	0.8746614
Mn	0.3005827	0.94969115	0.9998228
Mn	0.30197	0.94890655	0.12465655
Mn	0.3017608	0.947703	0.2522456
Mn	0.3020158	0.94991045	0.3749897
Mn	0.30019015	0.95002715	0.49932635
Mn	0.2998083	0.9485213	0.62370855
Mn	0.29919585	0.95063305	0.749124
Mn	0.30063535	0.95115775	0.87461195
Mn	0.4014446	0.04873955	0.00012755
Mn	0.39986245	0.04840265	0.1282759
Mn	0.40211985	0.05020285	0.2498512
Mn	0.40256255	0.04824025	0.37408665
Mn	0.4005408	0.04847165	0.4987418
Mn	0.40169725	0.0446797	0.62043985
Mn	0.40103945	0.0481483	0.7507153
Mn	0.399639	0.04730505	0.8756537
Mn	0.40219635	0.14585295	0.9999953
Mn	0.4003129	0.14754315	0.12847775
Mn	0.40400035	0.1438177	0.2510089
Mn	0.40091615	0.1463558	0.375863
Mn	0.3985503	0.14534635	0.49785245
Mn	0.39865885	0.14768875	0.6226385
Mn	0.39895245	0.1467613	0.7513018
Mn	0.4008879	0.13708975	0.87231045
Mn	0.40655525	0.252673	0.00117255
Mn	0.3971258	0.25323835	0.1258362
Mn	0.40187795	0.2517338	0.2541546
Mn	0.40196455	0.250149	0.3739796
Mn	0.39958295	0.2525595	0.49982985
Mn	0.3984068	0.24925075	0.6233526
Mn	0.4011297	0.24900795	0.7480479
Mn	0.40122245	0.2527564	0.8741161
Mn	0.3998542	0.3504603	0.998589
Mn	0.40012475	0.3548084	0.1253909
Mn	0.4002166	0.3528745	0.25083755
Mn	0.4011458	0.35033725	0.37609725
Mn	0.3987114	0.34987445	0.49872665
Mn	0.397865	0.35401955	0.62378375
Mn	0.3985044	0.35200565	0.7481699
Mn	0.40033175	0.3538963	0.87302875
Mn	0.40021645	0.45066355	0.00095585
Mn	0.40081705	0.45105935	0.1225915
Mn	0.40022965	0.4510049	0.2499887
Mn	0.4004376	0.4532203	0.37633855
Mn	0.3998679	0.45100185	0.5003708
Mn	0.3997094	0.4499434	0.62371745
Mn	0.3996178	0.4491813	0.74969065
Mn	0.4000475	0.4495455	0.87391795
Mn	0.4008211	0.546649	0.99674445
Mn	0.4016964	0.5491646	0.1264868
Mn	0.4024607	0.5486583	0.251684
Mn	0.39877625	0.5506634	0.3767906
Mn	0.40055335	0.549228	0.49981085
Mn	0.40020255	0.5481826	0.62395815
Mn	0.3972579	0.54768965	0.7504842
Mn	0.40056875	0.54805755	0.87383125
Mn	0.4006987	0.64777615	0.00199215
Mn	0.4020026	0.64930145	0.12470915
Mn	0.4014527	0.64689315	0.251616
Mn	0.40207995	0.64593135	0.37721855
Mn	0.39712995	0.6505161	0.4975645
Mn	0.3998142	0.64561715	0.6247967
Mn	0.3998415	0.64794975	0.7498922
Mn	0.40131315	0.6470048	0.87180905
Mn	0.4014184	0.7543526	0.00263495
Mn	0.4013593	0.7503976	0.127184
Mn	0.399709	0.75255385	0.25049385
Mn	0.40076685	0.75089395	0.37436505
Mn	0.3975583	0.7571276	0.49821385
Mn	0.3984255	0.7549526	0.6251862
Mn	0.3987276	0.75462365	0.7482619
Mn	0.3980267	0.756209	0.87647585
Mn	0.40042345	0.8537055	0.99971325
Mn	0.40002115	0.8513479	0.1263927
Mn	0.39918915	0.8540387	0.2502268
Mn	0.40086305	0.8524338	0.37536235
Mn	0.4012452	0.85439465	0.4977058
Mn	0.3982626	0.8521424	0.62520375
Mn	0.3992867	0.8534619	0.74940595
Mn	0.40001765	0.85270715	0.87484835
Mn	0.4001015	0.9504524	0.9984519
Mn	0.40016265	0.95009795	0.12630925
Mn	0.39935535	0.95006815	0.25010875
Mn	0.4002894	0.9502068	0.37552595
Mn	0.3987516	0.9513288	0.49953875
Mn	0.40067445	0.9492734	0.62255855
Mn	0.39940405	0.94999575	0.74772965
Mn	0.399722	0.9509136	0.87411225
Mn	0.4999727	0.0494362	0.00108085
Mn	0.50213785	0.0495913	0.12601025
Mn	0.4981226	0.0500929	0.2516933
Mn	0.4990803	0.04744225	0.37526995
Mn	0.49838	0.0477362	0.49883325
Mn	0.4973984	0.05057025	0.62416785
Mn	0.500412	0.0470783	0.74952215
Mn	0.50170025	0.0487723	0.87522965
Mn	0.50280715	0.14447825	0.9994592
Mn	0.49973915	0.1476664	0.12444855
Mn	0.5029271	0.1444161	0.24994935
Mn	0.5007931	0.1459215	0.3756392
Mn	0.5018146	0.14781495	0.5025462
Mn	0.49930445	0.1469733	0.6248617
Mn	0.4990613	0.14417255	0.7490151
Mn	0.50219695	0.1438529	0.87177905
Mn	0.5025077	0.24885795	0.99811465
Mn	0.5057099	0.25008815	0.12516775
Mn	0.5040346	0.24680335	0.2506329
Mn	0.5007063	0.25291135	0.3751289
Mn	0.50415385	0.25025445	0.5017976
Mn	0.50162285	0.2477168	0.6255118
Mn	0.50138365	0.2536841	0.74988945
Mn	0.5024164	0.24813005	0.8714176
Mn	0.50122735	0.35109485	0.99986185
Mn	0.4990228	0.35215375	0.12702815
Mn	0.50121295	0.3559981	0.2511732
Mn	0.5027977	0.35117485	0.3716579
Mn	0.49919375	0.35153685	0.49781215
Mn	0.49623995	0.3545241	0.6231746
Mn	0.4996344	0.3496848	0.7484906
Mn	0.50134895	0.3514995	0.87316825
Mn	0.49993535	0.45072185	0.99927885
Mn	0.49968955	0.4514556	0.1254543
Mn	0.49910405	0.4511505	0.25158835
Mn	0.50073225	0.4505618	0.37454705
Mn	0.5015456	0.45037875	0.4963258
Mn	0.50019765	0.4506403	0.6247446
Mn	0.5005454	0.45015645	0.75109095
Mn	0.49976	0.45091435	0.87438975
Mn	0.5017372	0.54814265	7.73E-05
Mn	0.49952285	0.5489418	0.1253191
Mn	0.50215445	0.55019765	0.25028945
Mn	0.49921445	0.54955835	0.3758601
Mn	0.49961695	0.55001985	0.4994224
Mn	0.4988771	0.54933355	0.6259081
Mn	0.499307	0.5487723	0.74873235
Mn	0.5015123	0.548001	0.8734145
Mn	0.50304765	0.65143225	0.00169785
Mn	0.50270245	0.64468245	0.124879
Mn	0.50215775	0.64591995	0.2509215
Mn	0.49872315	0.65107595	0.37639285
Mn	0.49887695	0.64924915	0.5001389
Mn	0.49882775	0.64631115	0.62616645
Mn	0.50121125	0.64609105	0.7479959
Mn	0.49900175	0.64362485	0.8745177
Mn	0.5014477	0.7502954	0.99898025
Mn	0.50008975	0.75267905	0.1266977
Mn	0.5005949	0.75042695	0.25230465
Mn	0.4979891	0.7505609	0.37220895
Mn	0.4994236	0.75241155	0.49814985
Mn	0.49803435	0.7508157	0.6239534
Mn	0.50051285	0.7499138	0.7515415
Mn	0.4991074	0.7556864	0.87480365
Mn	0.497705	0.85590435	0.9995594
Mn	0.4988593	0.8512392	0.1242998
Mn	0.50035745	0.85496785	0.2506232
Mn	0.49889015	0.8513749	0.37072585
Mn	0.4991563	0.8530332	0.4987684
Mn	0.4980344	0.85389615	0.62479665
Mn	0.4995944	0.8518023	0.74949595
Mn	0.49912925	0.85140905	0.87582865
Mn	0.50132345	0.9501058	0.00011185
Mn	0.50040595	0.94957745	0.1257563
Mn	0.5009981	0.9496781	0.2492136
Mn	0.49893115	0.9504545	0.37308115
Mn	0.49883655	0.9515017	0.4988072
Mn	0.49754135	0.95055845	0.624851
Mn	0.49921105	0.95067465	0.74852255
Mn	0.4994664	0.9491344	0.87481425
Mn	0.5984102	0.0510176	0.000891
Mn	0.60175455	0.04933895	0.12603225
Mn	0.59797875	0.04872675	0.2508571
Mn	0.59761745	0.0492105	0.3738794
Mn	0.59762425	0.04772055	0.49952915
Mn	0.59772585	0.0474836	0.62375015
Mn	0.59947645	0.04803195	0.7498253
Mn	0.6005647	0.04757855	0.8764087
Mn	0.6027655	0.1505917	0.0008843
Mn	0.603292	0.1470081	0.1280633
Mn	0.601217	0.14582345	0.2493746
Mn	0.5995787	0.148311	0.3737431
Mn	0.6006494	0.15115745	0.5012047
Mn	0.6002359	0.14954985	0.6234427
Mn	0.5996283	0.1503464	0.7510286
Mn	0.60397575	0.14523565	0.8760552
Mn	0.6019173	0.2513185	0.99899955
Mn	0.60256275	0.24618175	0.12361065
Mn	0.6006889	0.2505032	0.2525528
Mn	0.59914825	0.2489304	0.37511135
Mn	0.6017471	0.2532928	0.5023387
Mn	0.59955305	0.2518243	0.6254629
Mn	0.60123755	0.2546538	0.74886975
Mn	0.6027738	0.2491182	0.8772778
Mn	0.60168515	0.35182575	0.99869645
Mn	0.6015232	0.3512604	0.12465625
Mn	0.59821375	0.3503246	0.2494236
Mn	0.5994399	0.35158265	0.37488855
Mn	0.59907675	0.3501065	0.4987647
Mn	0.60102015	0.35427005	0.62314185
Mn	0.60132965	0.3516697	0.7481893
Mn	0.60061765	0.3519406	0.87598415
Mn	0.60020615	0.4502275	0.00153455
Mn	0.59963635	0.45047625	0.1230692
Mn	0.5998808	0.45092065	0.24839175
Mn	0.59886165	0.4491419	0.3753919
Mn	0.5997861	0.44965785	0.50031655
Mn	0.59870615	0.45277525	0.6235376
Mn	0.6011528	0.45218555	0.7484874
Mn	0.6017038	0.4530439	0.87550815
Mn	0.60117935	0.5481376	0.0006594
Mn	0.599146	0.54969695	0.12354785
Mn	0.6006337	0.54978815	0.2523084
Mn	0.59705205	0.55049635	0.37531045
Mn	0.60093	0.54672905	0.5001612
Mn	0.5999837	0.54612525	0.62338605
Mn	0.60105555	0.54695545	0.7505101
Mn	0.6002185	0.5496759	0.8749642
Mn	0.6013697	0.6496624	0.0003342
Mn	0.60090655	0.64916885	0.1270152
Mn	0.60405035	0.6468839	0.2504945
Mn	0.59934695	0.6491522	0.37608525
Mn	0.60017795	0.64566065	0.4989147
Mn	0.60242825	0.6465506	0.62503055
Mn	0.6019336	0.64820555	0.75176555
Mn	0.60132865	0.650113	0.8745773
Mn	0.6024909	0.75189805	0.00350945
Mn	0.6012523	0.751326	0.12557955
Mn	0.6006398	0.7509632	0.250187
Mn	0.5975899	0.74973675	0.3731579
Mn	0.5981985	0.7510742	0.49598125
Mn	0.5983035	0.7510124	0.6230158
Mn	0.5939544	0.75441045	0.7489056
Mn	0.60064995	0.7510398	0.87640145
Mn	0.59927395	0.85408445	0.0007726
Mn	0.59820645	0.85177035	0.1247744
Mn	0.5990642	0.85122725	0.2484122
Mn	0.59801715	0.85274555	0.3718121
Mn	0.5972546	0.85076715	0.49760735
Mn	0.6001139	0.85144305	0.6267947
Mn	0.5986943	0.853846	0.7503916
Mn	0.5989027	0.8518036	0.8764514
Mn	0.5986326	0.9499262	0.0016219
Mn	0.5985894	0.95052765	0.1247623
Mn	0.59834235	0.950028	0.2502726
Mn	0.59783935	0.95109305	0.3743259
Mn	0.5968751	0.94923895	0.49895845
Mn	0.5983497	0.9504595	0.62395175
Mn	0.5990264	0.9506656	0.7488732
Mn	0.6016691	0.9517378	0.87529305
Mn	0.6985297	0.04966455	0.9991232
Mn	0.6998863	0.05094405	0.1251307
Mn	0.69728335	0.05013365	0.2507506
Mn	0.6992852	0.0486978	0.3754528
Mn	0.69781355	0.05149575	0.4993726
Mn	0.6985382	0.0499691	0.62644775
Mn	0.70228225	0.0496693	0.75186655
Mn	0.6997764	0.04915575	0.8760905
Mn	0.7031237	0.1501575	0.0002656
Mn	0.69891165	0.1497174	0.1252762
Mn	0.6982384	0.14738735	0.2479113
Mn	0.6973217	0.1488683	0.3744724
Mn	0.69922855	0.1483866	0.4993429
Mn	0.6982313	0.1493584	0.6243048
Mn	0.69952365	0.1499138	0.7511754
Mn	0.701211	0.14833265	0.87563715
Mn	0.69943095	0.2505085	0.9973417
Mn	0.7013254	0.2476959	0.1229134
Mn	0.7004853	0.250912	0.24987605
Mn	0.7006612	0.2493684	0.3733255
Mn	0.6999756	0.24828125	0.50126875
Mn	0.7009538	0.24961235	0.62404985
Mn	0.7018925	0.2500046	0.7500957
Mn	0.70089545	0.249514	0.87642725
Mn	0.70068045	0.3506541	0.99883825
Mn	0.7032539	0.34968765	0.1261483
Mn	0.69974055	0.35014445	0.25013425
Mn	0.7025493	0.3505642	0.3742931
Mn	0.69822345	0.3504166	0.4981654
Mn	0.70066425	0.35111405	0.62554775
Mn	0.7018273	0.3504699	0.74716005
Mn	0.69991605	0.34925955	0.87464725
Mn	0.70317955	0.4502665	0.00101845
Mn	0.69988725	0.4506143	0.12472655
Mn	0.700196	0.44982475	0.2504528
Mn	0.70089115	0.45156865	0.3744699
Mn	0.70080645	0.44986225	0.49942295
Mn	0.69984245	0.4507194	0.62500755
Mn	0.70142395	0.44948745	0.75040995
Mn	0.70062625	0.44982245	0.8764471
Mn	0.70093395	0.5497983	0.99888555
Mn	0.700183	0.5497493	0.12308165
Mn	0.7015933	0.54842	0.2496444
Mn	0.70121685	0.54989375	0.37419145
Mn	0.7002452	0.5468048	0.4977044
Mn	0.70007865	0.54740425	0.62373475
Mn	0.701172	0.5480996	0.75224985
Mn	0.7017178	0.5501071	0.87486805
Mn	0.70186945	0.6487688	0.00060275
Mn	0.70053195	0.6494341	0.12388135
Mn	0.7002591	0.64820255	0.25117755
Mn	0.69997475	0.64604335	0.37308145
Mn	0.7005738	0.6477498	0.5030778
Mn	0.70252475	0.6413083	0.62745855
Mn	0.70175585	0.647875	0.7516536
Mn	0.7000042	0.650539	0.8755828
Mn	0.70193885	0.75035735	0.0009842
Mn	0.6989466	0.75205135	0.12657225
Mn	0.6995998	0.7483125	0.2473571
Mn	0.6996613	0.75208725	0.3752128
Mn	0.69721685	0.75274135	0.5006999
Mn	0.69954795	0.75164355	0.62584345
Mn	0.7001436	0.7507489	0.7530205
Mn	0.70017245	0.7507286	0.87884405
Mn	0.7006334	0.8509893	0.99984635
Mn	0.70103635	0.850221	0.123921
Mn	0.6993063	0.8511108	0.2481527
Mn	0.6976849	0.8523168	0.3723582
Mn	0.6973384	0.8499035	0.49928425
Mn	0.69668715	0.8515154	0.62461315
Mn	0.69921665	0.8510323	0.7512655
Mn	0.69871535	0.8507611	0.8743975
Mn	0.70034405	0.95168685	0.00252775
Mn	0.699968	0.94982145	0.12480305
Mn	0.6994061	0.94980675	0.2473141
Mn	0.69753245	0.95153335	0.3724864
Mn	0.6992368	0.9522503	0.4990287
Mn	0.698285	0.9504314	0.62413655
Mn	0.6994017	0.9502051	0.75151075
Mn	0.70011165	0.94989125	0.8764861
Mn	0.79981895	0.0502986	0.99981955
Mn	0.80071215	0.0519364	0.1253216
Mn	0.79755565	0.0485775	0.248922
Mn	0.79886155	0.0484007	0.3746312
Mn	0.79749985	0.05218825	0.50065055
Mn	0.7996145	0.04813645	0.62499945
Mn	0.7994405	0.05099485	0.7507416
Mn	0.7996569	0.04934865	0.8764719
Mn	0.80098575	0.14918735	0.9988139
Mn	0.7988303	0.1501831	0.12267595
Mn	0.7992007	0.15030945	0.24948665
Mn	0.7977436	0.1474112	0.37473985
Mn	0.79894315	0.1512622	0.502119
Mn	0.8010868	0.1498634	0.6265392
Mn	0.8009133	0.1491728	0.75295425
Mn	0.80128205	0.1500097	0.8768485
Mn	0.80075415	0.2512443	0.99959925
Mn	0.79935445	0.25017255	0.1233353
Mn	0.7986111	0.24838015	0.25003825
Mn	0.8001062	0.2494886	0.37576965
Mn	0.79931505	0.24926755	0.49990575
Mn	0.7990908	0.2508196	0.62552515
Mn	0.801356	0.24993765	0.75047995
Mn	0.80066965	0.25115125	0.8734005
Mn	0.8019514	0.35016415	0.9985851
Mn	0.7990559	0.3515301	0.1241632
Mn	0.8000427	0.3512517	0.2503704
Mn	0.80029115	0.3496164	0.3746462
Mn	0.7989804	0.3534636	0.49814965
Mn	0.80175715	0.35022915	0.6233114
Mn	0.79982745	0.3498248	0.74941365
Mn	0.8012729	0.35081195	0.8741553
Mn	0.80094155	0.45023615	0.00052035
Mn	0.8002242	0.45241445	0.12336825
Mn	0.80004165	0.45093615	0.24789815
Mn	0.7996378	0.4510999	0.3735944
Mn	0.8004328	0.4514293	0.50028985
Mn	0.799649	0.4505112	0.62518575
Mn	0.80031375	0.44916215	0.7518206
Mn	0.80178545	0.450769	0.87358565
Mn	0.8009008	0.54747525	0.0003098
Mn	0.79888955	0.5493995	0.12309555
Mn	0.79898705	0.55003975	0.2495933
Mn	0.80041635	0.5498129	0.3727101
Mn	0.80149425	0.54930165	0.50094245
Mn	0.80205055	0.54847015	0.62686615
Mn	0.8007101	0.5498442	0.7508846
Mn	0.80134095	0.5490337	0.87576585
Mn	0.80007955	0.6497617	0.99834585
Mn	0.7974706	0.6512707	0.1236215
Mn	0.79969205	0.6495685	0.2485225
Mn	0.79931825	0.6496019	0.37639505
Mn	0.80113955	0.64488785	0.50054825
Mn	0.80079525	0.64610635	0.62517105
Mn	0.8002849	0.650535	0.7500333
Mn	0.8007151	0.6502285	0.87585345
Mn	0.80103005	0.74910235	0.001374
Mn	0.79852915	0.7500788	0.12375065
Mn	0.79640045	0.75153455	0.2486083
Mn	0.79781285	0.75061935	0.37417015
Mn	0.79797475	0.74874205	0.4974962
Mn	0.80234765	0.7501454	0.62601005
Mn	0.8027957	0.7457476	0.750342
Mn	0.80202465	0.74781685	0.876804
Mn	0.80021265	0.8494544	0.9973998
Mn	0.8005322	0.8502924	0.12404685
Mn	0.79764875	0.84960255	0.2459433
Mn	0.7988171	0.8498601	0.3739877
Mn	0.79914805	0.84899785	0.49837865
Mn	0.79916675	0.8498358	0.6259083
Mn	0.79859425	0.85277375	0.7525627
Mn	0.8004212	0.8503366	0.8748995
Mn	0.7989748	0.95381685	0.998973
Mn	0.7993068	0.95061685	0.125441
Mn	0.7982274	0.9524662	0.25106025
Mn	0.7980366	0.9513386	0.37541445
Mn	0.79922305	0.95165905	0.49890965
Mn	0.7974772	0.9504282	0.6251426
Mn	0.79877405	0.9517767	0.7484647
Mn	0.7996219	0.9526652	0.87745015
Mn	0.89888375	0.0491308	0.9995012
Mn	0.8988597	0.04834725	0.1235852
Mn	0.8963971	0.0493398	0.24715615
Mn	0.8979955	0.04934755	0.3742934
Mn	0.9007165	0.0492247	0.4993657
Mn	0.9027689	0.04991905	0.6267188
Mn	0.9014392	0.0490724	0.7495796
Mn	0.90129455	0.04892885	0.87431695
Mn	0.8979096	0.149538	0.9983964
Mn	0.89979975	0.1478819	0.1241255
Mn	0.89853515	0.15031955	0.24975305
Mn	0.896565	0.14865145	0.37516115
Mn	0.90043465	0.1519698	0.50019505
Mn	0.9015763	0.1490511	0.62778615
Mn	0.90088915	0.14951935	0.75196025
Mn	0.8996052	0.1489765	0.8748458
Mn	0.90072785	0.25053065	0.9993471
Mn	0.89965205	0.24982435	0.124139
Mn	0.8987547	0.2531337	0.2482117
Mn	0.89852445	0.24924745	0.3744358
Mn	0.8982774	0.2508282	0.50006995
Mn	0.89845995	0.2513436	0.6297459
Mn	0.8991401	0.2498063	0.7494471
Mn	0.8990991	0.2532476	0.87560005
Mn	0.90044205	0.35113215	0.99816755
Mn	0.90010235	0.35012055	0.1242014
Mn	0.90070885	0.3513759	0.2486067
Mn	0.90004065	0.35149465	0.3760667
Mn	0.896898	0.3489982	0.4975676
Mn	0.9013311	0.35121515	0.625413
Mn	0.8990653	0.35088095	0.74932475
Mn	0.90074755	0.35004845	0.8745772
Mn	0.90155395	0.4484582	0.99905315
Mn	0.9006175	0.4502396	0.12383115
Mn	0.899148	0.45142735	0.2481506
Mn	0.89723845	0.44841195	0.37467065
Mn	0.9001429	0.4509268	0.4999966
Mn	0.90050645	0.4494162	0.62624945
Mn	0.8993438	0.44868775	0.75017645
Mn	0.89984385	0.45056725	0.87297465
Mn	0.8990274	0.5483974	0.99900605
Mn	0.9014284	0.54918495	0.1248343
Mn	0.89995525	0.54828245	0.24868315
Mn	0.90034145	0.5483353	0.37326715
Mn	0.90096055	0.54887725	0.5024661
Mn	0.90008075	0.5493486	0.62922055
Mn	0.9001918	0.54931205	0.75026845
Mn	0.90140825	0.5483884	0.87643325
Mn	0.89881455	0.6484184	0.9990292
Mn	0.8983097	0.6498639	0.1238751
Mn	0.8973546	0.64866475	0.24821765
Mn	0.90081355	0.64994725	0.37535825
Mn	0.8985402	0.64386035	0.50169555
Mn	0.90103335	0.6463695	0.6266932
Mn	0.9016668	0.6497085	0.75059845
Mn	0.90051295	0.6496424	0.8745546
Mn	0.90023175	0.74934055	0.9998907
Mn	0.8980918	0.7504037	0.1244349
Mn	0.8985343	0.74918675	0.2508162
Mn	0.8981742	0.7509929	0.37320855
Mn	0.90138835	0.7480534	0.50043775
Mn	0.9003358	0.75026185	0.6249713
Mn	0.9010573	0.74805245	0.7496061
Mn	0.89925175	0.74992015	0.8735923
Mn	0.9005778	0.8490672	0.9994614
Mn	0.89781615	0.84812715	0.12410355
Mn	0.8979475	0.85080815	0.2488222
Mn	0.8979478	0.85145845	0.37316455
Mn	0.9021338	0.84795805	0.5020183
Mn	0.90366535	0.84699035	0.6227943
Mn	0.89801755	0.85185225	0.7514257
Mn	0.90042095	0.849647	0.87605545
Mn	0.90075925	0.94941005	0.999971
Mn	0.89832805	0.9503386	0.1237925
Mn	0.9005678	0.95020895	0.25026645
Mn	0.9012645	0.94937735	0.37150575
Mn	0.89949565	0.9492464	0.497217
Mn	0.90134775	0.95003075	0.6253232
Mn	0.90026275	0.9496808	0.7521375
Mn	0.90119395	0.9504396	0.87603025
Mn	0.05117625	0.999684	0.0003181
Mn	0.05068565	0.00140865	0.1248543
Mn	0.05240675	0.9996482	0.2496941
Mn	0.0530005	0.0009341	0.37507005
Mn	0.05474225	0.9978098	0.49892925
Mn	0.05103665	0.99814575	0.6257684
Mn	0.0506264	0.99789045	0.75104195
Mn	0.04989195	0.9996445	0.8743817
Mn	0.04807725	0.09881235	0.99992545
Mn	0.0481529	0.09828995	0.1248638
Mn	0.04850615	0.09663785	0.24959605
Mn	0.05170965	0.10112155	0.37483615
Mn	0.0515842	0.0975376	0.50036565
Mn	0.05078115	0.1000621	0.6275212
Mn	0.04796615	0.1000596	0.75169465
Mn	0.049842	0.0995324	0.8737957
Mn	0.04981075	0.2011261	0.9988014
Mn	0.0501	0.197766	0.12205305
Mn	0.0473967	0.19973985	0.2492523
Mn	0.04835045	0.19732295	0.3717102
Mn	0.0498527	0.1992047	0.50096955
Mn	0.0507636	0.19884545	0.62692695
Mn	0.0488882	0.19861025	0.7519263
Mn	0.0486936	0.2009232	0.87644815
Mn	0.0480233	0.2996506	0.9983407
Mn	0.0490386	0.2999537	0.12418845
Mn	0.04949595	0.30085515	0.25034055
Mn	0.0494263	0.3006016	0.37411075
Mn	0.0494888	0.30006815	0.50114725
Mn	0.04688205	0.30096235	0.6270229
Mn	0.05015785	0.3015237	0.75067865
Mn	0.0506181	0.3005568	0.8742222
Mn	0.04954705	0.39899805	0.99961995
Mn	0.0500039	0.40102745	0.1226877
Mn	0.05011675	0.3995135	0.2484908
Mn	0.0496296	0.4017941	0.3776722
Mn	0.04948075	0.4023894	0.50105295
Mn	0.0504124	0.40002515	0.62744875
Mn	0.04696815	0.40257195	0.7517813
Mn	0.0503318	0.4001287	0.874692
Mn	0.0492117	0.49735745	0.9981097
Mn	0.05014865	0.4996778	0.12371005
Mn	0.0505864	0.49973615	0.2482216
Mn	0.04931225	0.4994097	0.3770609
Mn	0.049467	0.4998128	0.5019915
Mn	0.04980005	0.5005057	0.6248806
Mn	0.0475161	0.4987955	0.7489024
Mn	0.05087295	0.5005858	0.87345905
Mn	0.0479882	0.59817125	0.99869685
Mn	0.0462687	0.59942175	0.124291
Mn	0.0504282	0.59658635	0.24853945
Mn	0.04831325	0.5961332	0.3743009
Mn	0.04897315	0.5985751	0.5010061
Mn	0.05033325	0.5996426	0.62734635
Mn	0.05148245	0.5980343	0.7506973
Mn	0.0478213	0.59689685	0.87696395
Mn	0.04915455	0.6968673	0.99761335
Mn	0.0472565	0.69695265	0.12361915
Mn	0.04846135	0.69686855	0.2496434
Mn	0.05171645	0.7004074	0.37891
Mn	0.04986615	0.70094275	0.50040455
Mn	0.0527802	0.7004963	0.62683935
Mn	0.04715155	0.6981749	0.7523933
Mn	0.05000215	0.6991907	0.87471225
Mn	0.0514793	0.80022935	0.99947305
Mn	0.0493625	0.8029041	0.12253535
Mn	0.05067505	0.80213715	0.2514418
Mn	0.05543125	0.8025453	0.37513235
Mn	0.05281445	0.80050165	0.50400425
Mn	0.0511687	0.80075205	0.6262968
Mn	0.05066595	0.79998065	0.7512787
Mn	0.05014945	0.7993881	0.87634465
Mn	0.0505933	0.90096845	0.9983629
Mn	0.05016815	0.9012589	0.12538375
Mn	0.0506263	0.90014555	0.24885485
Mn	0.052518	0.9004678	0.37606895
Mn	0.0545802	0.90249135	0.5005963
Mn	0.05227205	0.90190695	0.62526855
Mn	0.05248075	0.900813	0.7518178
Mn	0.05068625	0.90067445	0.87565565
Mn	0.1488983	0.99995555	0.99961125
Mn	0.15029575	0.0002963	0.1250461
Mn	0.1530754	0.99970915	0.25097825
Mn	0.1522032	0.99956065	0.3734035
Mn	0.1515064	0.0003976	0.50227725
Mn	0.15156815	0.99928085	0.62618285
Mn	0.1513101	0.9985447	0.7494995
Mn	0.1515701	0.0002778	0.87432275
Mn	0.14755575	0.1006452	0.99952495
Mn	0.151202	0.09839395	0.1261118
Mn	0.1531925	0.09752075	0.24939415
Mn	0.15189645	0.10003785	0.37554715
Mn	0.15123715	0.0971296	0.5020955
Mn	0.1504244	0.0995631	0.6238842
Mn	0.1486281	0.0982517	0.750198
Mn	0.1496191	0.09772825	0.87538275
Mn	0.1497978	0.19971145	0.0003304
Mn	0.14681745	0.1971185	0.1279587
Mn	0.14920855	0.19839915	0.24925605
Mn	0.1486283	0.2015542	0.3782665
Mn	0.14835065	0.2003622	0.50005685
Mn	0.14795235	0.19930385	0.62674925
Mn	0.148651	0.1991773	0.75030355
Mn	0.1491053	0.19976365	0.87448715
Mn	0.1496837	0.30199465	0.9963441
Mn	0.1483066	0.3027593	0.1256188
Mn	0.1508858	0.3011144	0.25096605
Mn	0.1514815	0.30229515	0.3793583
Mn	0.14994705	0.3022718	0.4990744
Mn	0.14964	0.3028085	0.6251114
Mn	0.1502619	0.3007361	0.749263
Mn	0.14923875	0.30130455	0.8742115
Mn	0.15033315	0.4015755	0.9993444
Mn	0.1507294	0.40080995	0.1221078
Mn	0.1513131	0.4014053	0.25007795
Mn	0.14993515	0.4000004	0.37687225
Mn	0.14921965	0.4001291	0.50053465
Mn	0.1524289	0.40357485	0.62687415
Mn	0.15084775	0.40029665	0.74887105
Mn	0.1491784	0.40288865	0.871557
Mn	0.14918225	0.4985612	0.0003377
Mn	0.1492549	0.5014519	0.1240462
Mn	0.14992955	0.49925175	0.24985255
Mn	0.152502	0.4996357	0.37602195
Mn	0.15148255	0.4993681	0.501634
Mn	0.14958695	0.49923865	0.627195
Mn	0.14856005	0.49899905	0.74984145
Mn	0.14950085	0.4989528	0.87381255
Mn	0.1499784	0.5994292	0.9987912
Mn	0.1491454	0.59795675	0.12257305
Mn	0.1508469	0.59616695	0.24963175
Mn	0.14877965	0.59793475	0.37574465
Mn	0.1507039	0.5989769	0.5009975
Mn	0.14817445	0.5963465	0.62650745
Mn	0.15011165	0.5961695	0.750113
Mn	0.1480741	0.59724605	0.8750714
Mn	0.14814465	0.69615705	0.0024195
Mn	0.14879835	0.7011593	0.12180345
Mn	0.1495429	0.69901015	0.25137815
Mn	0.1506484	0.70312615	0.3766791
Mn	0.14969075	0.6998759	0.5027621
Mn	0.1513746	0.6975861	0.6293466
Mn	0.1497326	0.69852475	0.74941415
Mn	0.1485939	0.69786005	0.8771212
Mn	0.15014565	0.80082765	0.9980822
Mn	0.149276	0.80223085	0.12422005
Mn	0.15228715	0.80236855	0.2504113
Mn	0.15458215	0.80668745	0.3792503
Mn	0.1544241	0.8026852	0.5009417
Mn	0.15262525	0.8023182	0.6269689
Mn	0.14914145	0.8018682	0.75038995
Mn	0.1487271	0.79986285	0.8771875
Mn	0.15112275	0.9015758	0.99799
Mn	0.14967135	0.9009557	0.1252569
Mn	0.1509792	0.9027581	0.249447
Mn	0.15473705	0.9010959	0.3756426
Mn	0.15201085	0.8998437	0.49923365
Mn	0.1538513	0.9031168	0.623028
Mn	0.1500499	0.902103	0.7494553
Mn	0.1497708	0.9012078	0.87448385
Mn	0.2511094	0.99950955	0.0002443
Mn	0.2498323	0.99929955	0.12500525
Mn	0.2520715	0.99816615	0.2501114
Mn	0.2519546	0.0006929	0.37720045
Mn	0.25225755	0.9998443	0.49957955
Mn	0.2503498	0.9984796	0.624214
Mn	0.2510551	0.9995348	0.74807495
Mn	0.24835255	0.9994583	0.87660015
Mn	0.24448195	0.09584145	0.0001408
Mn	0.24746175	0.0992846	0.12613355
Mn	0.24976375	0.0978947	0.2501947
Mn	0.2510727	0.09458045	0.374986
Mn	0.25104015	0.09824255	0.49921105
Mn	0.25012995	0.09617205	0.62507755
Mn	0.2501151	0.09763805	0.75011385
Mn	0.24805735	0.0947097	0.8745103
Mn	0.24822355	0.20062255	0.00354625
Mn	0.2471919	0.1934996	0.1238317
Mn	0.2542854	0.1965456	0.25196985
Mn	0.25118615	0.19472945	0.37356365
Mn	0.24958275	0.2003408	0.49933595
Mn	0.24842025	0.1975453	0.62760685
Mn	0.24936045	0.19752335	0.75115035
Mn	0.2461676	0.1961609	0.8716913
Mn	0.24866585	0.3028347	0.99754725
Mn	0.2522858	0.3079443	0.12539745
Mn	0.24987045	0.29982335	0.2510886
Mn	0.25061565	0.30233375	0.37521475
Mn	0.2490698	0.3055886	0.50098425
Mn	0.24942015	0.3016909	0.62403125
Mn	0.25026355	0.3023461	0.7502646
Mn	0.2487275	0.30138255	0.8709649
Mn	0.24994035	0.4018423	0.99833025
Mn	0.2508092	0.40119335	0.1243729
Mn	0.24996585	0.4012666	0.2491932
Mn	0.2487782	0.40132495	0.3770259
Mn	0.25042175	0.4030559	0.5006739
Mn	0.2517816	0.4010542	0.62460045
Mn	0.24805635	0.40154625	0.75047615
Mn	0.2486427	0.40143735	0.8751938
Mn	0.2486699	0.4992308	0.99852305
Mn	0.2486243	0.497909	0.1234072
Mn	0.24934605	0.4981129	0.25005815
Mn	0.2514363	0.4985673	0.3765433
Mn	0.25078605	0.50162805	0.50128235
Mn	0.2497566	0.49901285	0.62543825
Mn	0.24871975	0.49806195	0.7496037
Mn	0.2485314	0.5012017	0.87371265
Mn	0.24865885	0.59840305	0.99702785
Mn	0.24805465	0.59523835	0.12133915
Mn	0.24866565	0.59637655	0.25015425
Mn	0.25273155	0.5976429	0.37308245
Mn	0.2516467	0.59901945	0.50064315
Mn	0.24865665	0.59705955	0.62438135
Mn	0.2495763	0.5972496	0.7515468
Mn	0.2485659	0.5969312	0.8737878
Mn	0.24989765	0.70061995	0.0024591
Mn	0.2526775	0.70068705	0.12697225
Mn	0.2553109	0.7049709	0.25243895
Mn	0.25190895	0.70238405	0.37423145
Mn	0.2530155	0.7037084	0.50087295
Mn	0.2497169	0.7023468	0.62593585
Mn	0.2466482	0.6933917	0.7479746
Mn	0.247967	0.7019554	0.8790863
Mn	0.25138695	0.80448795	0.9983898
Mn	0.25271975	0.8032371	0.1217666
Mn	0.25205455	0.80435595	0.24998295
Mn	0.25282305	0.80611205	0.3762301
Mn	0.25313635	0.8063649	0.5010738
Mn	0.2518906	0.80251325	0.6265859
Mn	0.2513923	0.8037269	0.74968565
Mn	0.25026195	0.80169	0.87404485
Mn	0.2508001	0.9021415	0.9990863
Mn	0.2527502	0.90206935	0.12660665
Mn	0.251589	0.9017921	0.25383815
Mn	0.25136335	0.90124745	0.37558905
Mn	0.2512908	0.9012085	0.50063925
Mn	0.25016265	0.90066035	0.62489935
Mn	0.2508236	0.9011312	0.749765
Mn	0.25020105	0.90076695	0.8733065
Mn	0.3503739	0.9996837	0.0018471
Mn	0.34991605	0.00078135	0.1277407
Mn	0.3532767	0.9998945	0.2505247
Mn	0.34917815	0.999059	0.374663
Mn	0.349172	0.99921165	0.49934785
Mn	0.35123095	0.9998077	0.62346065
Mn	0.34972775	0.9993503	0.74893745
Mn	0.3483422	0.9986478	0.87658545
Mn	0.35103215	0.0984653	0.9991729
Mn	0.3513184	0.0974098	0.1271539
Mn	0.35080975	0.0988337	0.25071925
Mn	0.35014645	0.098266	0.37667105
Mn	0.35042745	0.0979663	0.4991593
Mn	0.34927155	0.0963446	0.62491345
Mn	0.34930615	0.09328835	0.74842325
Mn	0.3495173	0.09249355	0.8762895
Mn	0.3549157	0.20866365	0.00359895
Mn	0.3513255	0.198733	0.12353215
Mn	0.3529063	0.1979274	0.2509316
Mn	0.35047725	0.1942323	0.3759047
Mn	0.34928555	0.2032991	0.50059015
Mn	0.349154	0.1995488	0.6252689
Mn	0.35005475	0.19787755	0.7467142
Mn	0.35178755	0.1993408	0.8704477
Mn	0.35493015	0.3036702	0.9980659
Mn	0.34961835	0.30160175	0.1288841
Mn	0.34948085	0.30016265	0.24945305
Mn	0.3513667	0.3008261	0.38427625
Mn	0.3496227	0.3017912	0.49492205
Mn	0.3514053	0.30234255	0.622566
Mn	0.35361115	0.30240595	0.7474044
Mn	0.3521712	0.3051395	0.87163935
Mn	0.3498029	0.40102945	0.9983376
Mn	0.3511451	0.40355465	0.12196385
Mn	0.3512534	0.40255665	0.25022095
Mn	0.3519067	0.4015369	0.37519885
Mn	0.3523821	0.4008147	0.4992348
Mn	0.35187365	0.40177145	0.62347335
Mn	0.34995855	0.3991956	0.7487149
Mn	0.3492313	0.4001881	0.87416105
Mn	0.3501709	0.4976426	0.9986162
Mn	0.34844035	0.5007874	0.12565605
Mn	0.3520854	0.49781035	0.2509731
Mn	0.35040905	0.5013228	0.37658805
Mn	0.35077255	0.5003333	0.5009026
Mn	0.3484198	0.49683645	0.62447815
Mn	0.3492718	0.49823935	0.74901415
Mn	0.3496924	0.49943695	0.87494595
Mn	0.35204955	0.59777825	0.99953655
Mn	0.35136585	0.59857785	0.1251377
Mn	0.3503156	0.59647325	0.2524975
Mn	0.35107145	0.5960967	0.3762782
Mn	0.34923385	0.59871815	0.50136055
Mn	0.3483415	0.5978741	0.6257794
Mn	0.3479585	0.5979534	0.7494981
Mn	0.3478891	0.59660685	0.87587435
Mn	0.35186475	0.6969818	0.00137605
Mn	0.35076735	0.70034215	0.1252304
Mn	0.3535396	0.7021544	0.2546685
Mn	0.35368775	0.6988734	0.37507665
Mn	0.3524775	0.70311795	0.50063595
Mn	0.34605745	0.69611105	0.62442195
Mn	0.3437596	0.68552425	0.74428245
Mn	0.34796745	0.6985447	0.8751486
Mn	0.3511874	0.8083951	0.00152745
Mn	0.3519932	0.80279685	0.1268742
Mn	0.35081015	0.80616675	0.25198715
Mn	0.35150125	0.80313865	0.3761251
Mn	0.3512297	0.8034802	0.49917075
Mn	0.3507092	0.8050517	0.62496975
Mn	0.3511519	0.8029319	0.74942115
Mn	0.35039615	0.8025774	0.87422835
Mn	0.3494939	0.90157545	0.00034675
Mn	0.3508348	0.90202345	0.1268625
Mn	0.3501721	0.9006723	0.24876335
Mn	0.3521011	0.9020626	0.37544245
Mn	0.35198935	0.9021327	0.49942085
Mn	0.35041175	0.9003378	0.624998
Mn	0.3496063	0.89861155	0.75179275
Mn	0.3509115	0.9019491	0.87439715
Mn	0.44852	0.9970216	0.0001271
Mn	0.4517589	0.9998637	0.1264058
Mn	0.4498766	0.999768	0.25042475
Mn	0.4478124	0.99889595	0.37416595
Mn	0.4500627	0.9985634	0.4982677
Mn	0.44951895	0.998116	0.6250052
Mn	0.4491595	0.9988477	0.74887835
Mn	0.4510657	0.9986552	0.87594265
Mn	0.4507633	0.09671335	0.0014016
Mn	0.4508079	0.0954795	0.12490725
Mn	0.4497616	0.09743465	0.2496997
Mn	0.44916095	0.0964345	0.3754539
Mn	0.4487225	0.09896755	0.4982934
Mn	0.44992535	0.09949725	0.62363
Mn	0.4473459	0.09723295	0.7503488
Mn	0.4506963	0.0952929	0.87416375
Mn	0.4513704	0.2008993	0.9999141
Mn	0.45215025	0.1921988	0.12564365
Mn	0.45244175	0.1983322	0.25285965
Mn	0.4502813	0.19530905	0.3743723
Mn	0.4483943	0.19406185	0.4975563
Mn	0.448888	0.1967683	0.62535915
Mn	0.44692185	0.1968724	0.7483781
Mn	0.4529832	0.20355665	0.8727465
Mn	0.45069895	0.3068154	0.0015976
Mn	0.45530475	0.30531935	0.12712325
Mn	0.45265015	0.30039335	0.2507615
Mn	0.45014715	0.30025765	0.3738053
Mn	0.45133415	0.30160225	0.5009364
Mn	0.4521562	0.3042004	0.62450785
Mn	0.45036055	0.30319695	0.74819475
Mn	0.4523714	0.3046905	0.8743322
Mn	0.4501436	0.4000257	0.9996372
Mn	0.44886595	0.40339975	0.1247782
Mn	0.4526877	0.40117755	0.24987775
Mn	0.4517526	0.401063	0.3729193
Mn	0.45186005	0.4017019	0.49833105
Mn	0.4511526	0.4024026	0.62426595
Mn	0.4504261	0.4009595	0.7486873
Mn	0.45136685	0.4032993	0.8757797
Mn	0.4504082	0.4996938	0.99913285
Mn	0.4502648	0.49979085	0.1242758
Mn	0.4501293	0.5003969	0.25064905
Mn	0.45096285	0.49935365	0.3761507
Mn	0.45091985	0.50004265	0.49970495
Mn	0.4493085	0.498757	0.62614495
Mn	0.4517492	0.5010308	0.7492583
Mn	0.4498522	0.49998605	0.87464755
Mn	0.45268885	0.60048825	0.00166975
Mn	0.4514898	0.59856425	0.12854195
Mn	0.45108745	0.5985885	0.25123245
Mn	0.45021795	0.59843735	0.37788305
Mn	0.45046555	0.59488595	0.4992619
Mn	0.44902095	0.59674055	0.6262677
Mn	0.44580615	0.59397335	0.7488899
Mn	0.4515871	0.5985294	0.8762235
Mn	0.4539995	0.70241745	0.0049108
Mn	0.4513145	0.6998776	0.12659445
Mn	0.45006555	0.70020575	0.25072445
Mn	0.44985535	0.7001242	0.3751645
Mn	0.45016455	0.6975525	0.497181
Mn	0.44639235	0.69554905	0.624277
Mn	0.4484389	0.6978958	0.7501376
Mn	0.44908035	0.70010395	0.87598125
Mn	0.45060975	0.80636205	0.9994178
Mn	0.44993995	0.80174585	0.1248145
Mn	0.45112805	0.80603095	0.24859325
Mn	0.4514725	0.8022433	0.3727679
Mn	0.44751355	0.80101465	0.4981973
Mn	0.4502464	0.8018228	0.6224907
Mn	0.4504522	0.8005863	0.7489006
Mn	0.44958545	0.804047	0.8765158
Mn	0.4492439	0.90164345	0.0006062
Mn	0.45020095	0.9023141	0.12409655
Mn	0.4523329	0.901737	0.2509988
Mn	0.45141825	0.9023866	0.3745472
Mn	0.44852145	0.901534	0.499999
Mn	0.4493903	0.90056135	0.6240901
Mn	0.4503685	0.90159135	0.75042565
Mn	0.4514229	0.90110325	0.8731452
Mn	0.5510637	0.99984715	0.00014565
Mn	0.5494524	0.9985466	0.1257758
Mn	0.54888135	0.99945365	0.24873015
Mn	0.5500403	0.99634255	0.3749335
Mn	0.54858865	0.99845455	0.49974075
Mn	0.5509016	3.18E-05	0.62134715
Mn	0.5490033	0.9991631	0.74817485
Mn	0.5502553	0.9999741	0.87626565
Mn	0.55042085	0.0979735	0.0037201
Mn	0.54975375	0.09831315	0.1265142
Mn	0.550108	0.0965444	0.2502019
Mn	0.5492801	0.09659545	0.3763988
Mn	0.5498326	0.0964364	0.49842545
Mn	0.5489623	0.0974875	0.6236438
Mn	0.5496851	0.09807585	0.7499145
Mn	0.55170415	0.0993748	0.87634165
Mn	0.5533816	0.19005355	0.9960473
Mn	0.55386045	0.1986085	0.1234375
Mn	0.54987135	0.1973818	0.25061905
Mn	0.55002805	0.1972372	0.3738924
Mn	0.5502119	0.20183375	0.50090795
Mn	0.5546392	0.20359095	0.62599105
Mn	0.55020165	0.2022026	0.75180055
Mn	0.55018265	0.20018475	0.87602625
Mn	0.55095825	0.30367435	0.99820525
Mn	0.5544959	0.30670525	0.1252552
Mn	0.5505735	0.3002863	0.25050875
Mn	0.55088085	0.3000285	0.37305155
Mn	0.55186005	0.30273695	0.49878905
Mn	0.552362	0.3026663	0.6236086
Mn	0.5522031	0.3035643	0.75149585
Mn	0.5508028	0.30079885	0.87553305
Mn	0.5492246	0.3993739	0.99842955
Mn	0.5505225	0.40271185	0.12598155
Mn	0.5514013	0.40165425	0.25084315
Mn	0.5487123	0.40132305	0.37500955
Mn	0.550537	0.40154985	0.49850525
Mn	0.55046115	0.40106355	0.62500785
Mn	0.549833	0.4013872	0.74944615
Mn	0.55053365	0.404172	0.87704445
Mn	0.5507015	0.4993082	0.9999842
Mn	0.5508613	0.5011033	0.1225037
Mn	0.5507403	0.4981476	0.24974895
Mn	0.5507692	0.50011045	0.374278
Mn	0.55014955	0.5002093	0.49876525
Mn	0.55013435	0.5005566	0.62756655
Mn	0.54874725	0.49990035	0.75195675
Mn	0.55228335	0.501461	0.87598635
Mn	0.55087165	0.59970405	0.0006008
Mn	0.55040045	0.60037545	0.1265401
Mn	0.5512838	0.59889435	0.2510851
Mn	0.5493684	0.5996274	0.37487745
Mn	0.5512303	0.5981266	0.4999693
Mn	0.55022805	0.5961072	0.6242665
Mn	0.55003635	0.5972935	0.7514843
Mn	0.5533971	0.5982077	0.87606305
Mn	0.5525057	0.70169565	0.0018556
Mn	0.5536502	0.7014935	0.1246713
Mn	0.5530957	0.7020678	0.2500679
Mn	0.5478219	0.6995811	0.37537105
Mn	0.5484045	0.7005599	0.49892395
Mn	0.55008675	0.69892955	0.62859245
Mn	0.55006625	0.69876	0.74907625
Mn	0.55137245	0.7022357	0.87562625
Mn	0.5516964	0.8027127	0.00244365
Mn	0.55164415	0.8018411	0.125021
Mn	0.55034785	0.80143235	0.2493534
Mn	0.54759695	0.8013878	0.3725652
Mn	0.5483422	0.8012655	0.49882655
Mn	0.5502187	0.8034142	0.62505135
Mn	0.5504296	0.7998752	0.75220165
Mn	0.5520044	0.8002724	0.8754178
Mn	0.5494983	0.90049915	0.00014325
Mn	0.55034065	0.90148125	0.12286605
Mn	0.5496141	0.8985203	0.2497276
Mn	0.5494862	0.9011034	0.37288745
Mn	0.5486079	0.90125225	0.49709965
Mn	0.5496333	0.902328	0.622386
Mn	0.54851945	0.90030005	0.74964465
Mn	0.5495772	0.900771	0.8732574
Mn	0.6506143	0.99916725	0.00120645
Mn	0.64987145	0.0010781	0.12476325
Mn	0.64761525	0.9977975	0.2505937
Mn	0.6479087	0.9982574	0.37297505
Mn	0.6476484	0.9983028	0.49793535
Mn	0.6475655	0.99770625	0.62435095
Mn	0.648143	0.0007649	0.74950435
Mn	0.65203675	0.00156465	0.87594205
Mn	0.649074	0.09937355	0.0006351
Mn	0.6487973	0.1003158	0.12617405
Mn	0.6495866	0.09907405	0.25128575
Mn	0.64854985	0.0990464	0.373571
Mn	0.64947995	0.0994072	0.5002298
Mn	0.64922745	0.098075	0.6248209
Mn	0.65097575	0.1004397	0.75183865
Mn	0.6506493	0.09685335	0.8751778
Mn	0.65205925	0.19969255	0.99998625
Mn	0.65033895	0.1986369	0.12539785
Mn	0.6500241	0.1988014	0.2527012
Mn	0.64888245	0.19861495	0.3733185
Mn	0.64974375	0.1999603	0.5012915
Mn	0.6532144	0.2006563	0.6250028
Mn	0.65282765	0.1997868	0.74876815
Mn	0.6516142	0.1997931	0.87410595
Mn	0.65449585	0.3044663	0.00015275
Mn	0.65256175	0.3026901	0.1271318
Mn	0.6521737	0.30398615	0.2519071
Mn	0.64907985	0.29913225	0.37673235
Mn	0.6503396	0.30067305	0.50123075
Mn	0.65192425	0.3031677	0.62256025
Mn	0.6512074	0.30388645	0.75196155
Mn	0.6499004	0.3014514	0.87480435
Mn	0.65137905	0.40003145	0.99822035
Mn	0.65073785	0.4007031	0.1250225
Mn	0.6499404	0.40056205	0.24968785
Mn	0.64958895	0.3999011	0.3740232
Mn	0.65039475	0.40017325	0.499811
Mn	0.6497816	0.40145465	0.62356425
Mn	0.6501814	0.40120555	0.75097735
Mn	0.6512429	0.40022425	0.87361335
Mn	0.65128215	0.5001173	0.9996598
Mn	0.6519327	0.50000725	0.12600305
Mn	0.65154725	0.5012992	0.2510975
Mn	0.6506554	0.50246405	0.3743772
Mn	0.65037045	0.4990352	0.4991484
Mn	0.65265315	0.50025085	0.6254337
Mn	0.6507813	0.4999572	0.75138745
Mn	0.64986305	0.50143415	0.87425225
Mn	0.652871	0.5983432	0.0010037
Mn	0.6505771	0.59884605	0.1227415
Mn	0.6485733	0.5982638	0.25102965
Mn	0.64887035	0.597578	0.37289055
Mn	0.6493723	0.5981581	0.50283455
Mn	0.6504516	0.59662965	0.6255144
Mn	0.65037565	0.59782485	0.74959235
Mn	0.6496961	0.6002276	0.8761251
Mn	0.65083395	0.69914485	0.0009264
Mn	0.649419	0.69911955	0.1263326
Mn	0.6501358	0.69808555	0.2488214
Mn	0.6512777	0.69924265	0.3743789
Mn	0.64815805	0.7014675	0.4999719
Mn	0.652238	0.69415805	0.62403035
Mn	0.65097875	0.69790525	0.7489902
Mn	0.6509864	0.6995334	0.87746905
Mn	0.65381065	0.80310435	0.0041886
Mn	0.65347265	0.80051065	0.1244071
Mn	0.649832	0.7997532	0.24939665
Mn	0.64903265	0.8017987	0.3729746
Mn	0.6464499	0.8032317	0.4982539
Mn	0.65009665	0.80025035	0.6236878
Mn	0.65004065	0.8010277	0.75331655
Mn	0.6516051	0.8017813	0.87476265
Mn	0.6484124	0.90017925	0.00026405
Mn	0.65036575	0.90122475	0.1254383
Mn	0.6487546	0.8997932	0.24942625
Mn	0.64964625	0.90107385	0.37489795
Mn	0.64708305	0.9018434	0.4979238
Mn	0.64912525	0.90182045	0.62436475
Mn	0.64749715	0.8992312	0.7501512
Mn	0.64927145	0.90047805	0.8753241
Mn	0.75060175	0.0007133	0.0014036
Mn	0.7498885	0.99916475	0.12495335
Mn	0.7472868	0.0014106	0.24793175
Mn	0.7489383	0.9977612	0.3744556
Mn	0.7479569	0.0002963	0.50031825
Mn	0.7485754	0.99946575	0.62624475
Mn	0.7492586	0.00121415	0.751344
Mn	0.7504509	0.99961055	0.87798035
Mn	0.74938595	0.1004483	0.00015135
Mn	0.75143035	0.1013615	0.12414375
Mn	0.74966945	0.09745375	0.24972315
Mn	0.7480243	0.0989786	0.37427595
Mn	0.74773675	0.099334	0.49954125
Mn	0.7505953	0.09928385	0.6269196
Mn	0.75024335	0.09810975	0.7519474
Mn	0.7514742	0.1011439	0.8770167
Mn	0.75372885	0.19726635	0.0005585
Mn	0.75085625	0.19931195	0.12524585
Mn	0.7492869	0.19968895	0.25050775
Mn	0.749606	0.2013631	0.37611055
Mn	0.7501351	0.20033875	0.5010966
Mn	0.7506662	0.19906865	0.6282604
Mn	0.7504826	0.2005177	0.751693
Mn	0.7516261	0.19937105	0.87458685
Mn	0.75121475	0.2994842	0.9998455
Mn	0.7526455	0.3010348	0.12427015
Mn	0.74892515	0.30080925	0.2520355
Mn	0.74964465	0.2998178	0.37461895
Mn	0.751911	0.29800525	0.49893975
Mn	0.7509107	0.30520905	0.6268788
Mn	0.75231245	0.30012	0.75005265
Mn	0.7518514	0.29829755	0.8751747
Mn	0.75012855	0.4007933	0.0003157
Mn	0.7504588	0.4006792	0.1263595
Mn	0.750541	0.4022718	0.248856
Mn	0.7494821	0.3996152	0.37570145
Mn	0.74998575	0.39965755	0.49832535
Mn	0.74982985	0.4025012	0.62403745
Mn	0.7525618	0.4016657	0.7505402
Mn	0.75046515	0.4003461	0.87482245
Mn	0.7516446	0.50092035	0.99871945
Mn	0.74946425	0.49901585	0.12514865
Mn	0.74959785	0.50050005	0.24788865
Mn	0.7495042	0.49879315	0.37478985
Mn	0.7486101	0.49773245	0.50088275
Mn	0.7518386	0.4986519	0.62596195
Mn	0.75111295	0.4987734	0.7487868
Mn	0.75250225	0.49958985	0.8742945
Mn	0.74967035	0.5992344	0.0009526
Mn	0.75044535	0.5992905	0.12446835
Mn	0.74779695	0.6005021	0.25274865
Mn	0.7473003	0.5973576	0.3746523
Mn	0.7463969	0.59598515	0.500418
Mn	0.75151405	0.5965128	0.6277267
Mn	0.7532401	0.59916125	0.74980415
Mn	0.75073885	0.59693025	0.87764095
Mn	0.75081625	0.6994582	0.0026588
Mn	0.74870175	0.69978585	0.12425725
Mn	0.74851995	0.6985317	0.24902355
Mn	0.74890615	0.7004266	0.3752201
Mn	0.74750605	0.69727745	0.4997606
Mn	0.74838055	0.6937292	0.6244549
Mn	0.7507317	0.7006089	0.7527527
Mn	0.7510391	0.70100405	0.87675905
Mn	0.75073595	0.80109585	0.99999755
Mn	0.7494464	0.8002319	0.12101545
Mn	0.7491699	0.80016725	0.2482968
Mn	0.7490564	0.8028444	0.3754883
Mn	0.74677245	0.80081185	0.49730475
Mn	0.7498517	0.8010967	0.62673535
Mn	0.75032835	0.8002216	0.75240775
Mn	0.74891995	0.7989115	0.87736645
Mn	0.74939545	0.900419	0.99930755
Mn	0.74932045	0.90016825	0.12450675
Mn	0.7471052	0.90164755	0.24950165
Mn	0.74841245	0.90110425	0.37238555
Mn	0.74429175	0.8993507	0.5001577
Mn	0.74814035	0.90044715	0.6255815
Mn	0.74797605	0.89753725	0.75223635
Mn	0.75075755	0.901832	0.87667875
Mn	0.85004235	0.0022663	0.9996578
Mn	0.8490836	0.00072315	0.12549505
Mn	0.84985085	0.0002565	0.24903795
Mn	0.84817355	0.9978179	0.3731135
Mn	0.8495605	0.99933175	0.4995718
Mn	0.85207175	0.000792	0.6241237
Mn	0.8501894	0.99753405	0.75295215
Mn	0.85122225	0.0007481	0.8771249
Mn	0.8496954	0.0968738	0.9964622
Mn	0.8494602	0.09915335	0.12359605
Mn	0.8483424	0.0985109	0.24904345
Mn	0.8481622	0.09760955	0.37489765
Mn	0.8497197	0.1019939	0.5010485
Mn	0.85195985	0.10042665	0.6253389
Mn	0.8522133	0.102372	0.7516314
Mn	0.84951135	0.09948465	0.8744122
Mn	0.84920255	0.20077015	0.0014937
Mn	0.8478951	0.19775315	0.1246181
Mn	0.85024055	0.1981887	0.25016935
Mn	0.8481155	0.1991929	0.3754156
Mn	0.84955235	0.20167595	0.50034125
Mn	0.85076715	0.2010157	0.62510965
Mn	0.85205625	0.2021925	0.75324845
Mn	0.84942375	0.2000892	0.87643515
Mn	0.85034605	0.30004375	0.9988935
Mn	0.85159705	0.29980685	0.1266171
Mn	0.849444	0.30365525	0.2486972
Mn	0.84988415	0.2988172	0.37629355
Mn	0.8482729	0.30215415	0.5006944
Mn	0.85016465	0.29932745	0.627179
Mn	0.8507608	0.30166085	0.7501119
Mn	0.8517497	0.3005845	0.8734087
Mn	0.8511487	0.3996893	0.00052815
Mn	0.8504709	0.4013878	0.12386835
Mn	0.84905985	0.4012636	0.2481969
Mn	0.84983025	0.39924335	0.3722557
Mn	0.84959995	0.4014813	0.500157
Mn	0.8496435	0.3999751	0.62645725
Mn	0.85122355	0.39962825	0.75111925
Mn	0.85235095	0.40138605	0.8743863
Mn	0.85138455	0.5000983	0.9983273
Mn	0.85140725	0.5021535	0.1238371
Mn	0.8492779	0.5005806	0.24988965
Mn	0.84942985	0.49990095	0.377494
Mn	0.85049335	0.500237	0.5013973
Mn	0.8490507	0.49893975	0.6266707
Mn	0.85127835	0.49995235	0.7516839
Mn	0.8500957	0.49998205	0.874855
Mn	0.85263125	0.6002685	0.9985549
Mn	0.84936325	0.59862275	0.12268445
Mn	0.84930365	0.59428845	0.2465078
Mn	0.84611215	0.5959032	0.37584745
Mn	0.8501846	0.59967805	0.50245005
Mn	0.8494166	0.60014475	0.62615225
Mn	0.8507606	0.59946645	0.7506763
Mn	0.8507538	0.5985674	0.8744717
Mn	0.84944015	0.69888285	0.0003832
Mn	0.8491964	0.69941985	0.123582
Mn	0.8504744	0.6992049	0.25005035
Mn	0.84824465	0.69972925	0.37288695
Mn	0.8477571	0.70093595	0.50117805
Mn	0.84904455	0.69813285	0.627885
Mn	0.8524251	0.6977374	0.75185465
Mn	0.85015195	0.6985013	0.8762606
Mn	0.8506827	0.80015525	0.9997768
Mn	0.84996225	0.79918065	0.12329955
Mn	0.84713805	0.80007585	0.2501974
Mn	0.85001125	0.8010018	0.374435
Mn	0.84975245	0.7999453	0.5001132
Mn	0.8490339	0.7994254	0.6275127
Mn	0.85175525	0.80011335	0.7496695
Mn	0.85171735	0.80197105	0.87532235
Mn	0.8505322	0.89981	0.99898945
Mn	0.8486228	0.9014383	0.12375565
Mn	0.8478129	0.8974689	0.24622105
Mn	0.8476714	0.89673215	0.3732504
Mn	0.8502021	0.90129015	0.4973657
Mn	0.84941975	0.8997217	0.62624865
Mn	0.85055325	0.90372505	0.7525069
Mn	0.85011475	0.8990788	0.87712815
Mn	0.94864675	0.99953785	0.9982943
Mn	0.94921745	0.9988914	0.1251664
Mn	0.95037605	9.2E-05	0.24994635
Mn	0.95205365	0.0014323	0.37233095
Mn	0.952394	0.0027076	0.5002405
Mn	0.95124275	0.99936825	0.62608195
Mn	0.9513046	0.00074365	0.7515462
Mn	0.95161105	0.99967645	0.8770276
Mn	0.9476502	0.0999387	0.9983171
Mn	0.9477432	0.09814565	0.12483525
Mn	0.94935845	0.1010225	0.2476825
Mn	0.94699585	0.1002271	0.3762264
Mn	0.95131295	0.10131025	0.5010769
Mn	0.9518367	0.10054995	0.62750145
Mn	0.9498129	0.09955865	0.75218065
Mn	0.95019645	0.0998374	0.8760112
Mn	0.94945565	0.1979977	0.99908085
Mn	0.94934215	0.19862405	0.1227422
Mn	0.9499385	0.2000223	0.24979415
Mn	0.9500726	0.1990774	0.3750041
Mn	0.95129835	0.20133895	0.5018207
Mn	0.9504031	0.19871635	0.62709895
Mn	0.94967105	0.2003151	0.7506046
Mn	0.949282	0.2017809	0.87598305
Mn	0.949606	0.3017745	0.99793695
Mn	0.95019735	0.3006882	0.12322875
Mn	0.94708635	0.3006647	0.2470503
Mn	0.9471583	0.2984077	0.3753262
Mn	0.9479612	0.29939295	0.5014309
Mn	0.9492477	0.3011155	0.6261309
Mn	0.9484048	0.30119615	0.7520764
Mn	0.9502994	0.3015794	0.87541435
Mn	0.9491656	0.40135495	0.9978713
Mn	0.94797055	0.4002573	0.12389535
Mn	0.95013475	0.4021259	0.24831675
Mn	0.9503868	0.4011039	0.37505895
Mn	0.95158045	0.40012955	0.49851195
Mn	0.9495818	0.3989694	0.6259911
Mn	0.9509995	0.401494	0.7506607
Mn	0.94823235	0.39955635	0.873539
Mn	0.9513961	0.49968765	0.99773155
Mn	0.95040605	0.5027623	0.12281725
Mn	0.94838615	0.4990186	0.25029365
Mn	0.95083915	0.4999136	0.37538885
Mn	0.9492153	0.4989541	0.50190155
Mn	0.9496088	0.50047105	0.6253097
Mn	0.9518577	0.5002375	0.75080285
Mn	0.9503563	0.4990944	0.8756429
Mn	0.9480678	0.6000531	0.99855245
Mn	0.9484205	0.6001114	0.1259323
Mn	0.94357665	0.5962071	0.2509584
Mn	0.9503686	0.597938	0.3752078
Mn	0.94929395	0.59696615	0.5005701
Mn	0.94908345	0.5978303	0.62583565
Mn	0.9498053	0.5977099	0.7512034
Mn	0.9482871	0.59919185	0.8755188
Mn	0.9490327	0.69872565	0.99803965
Mn	0.94843095	0.69858615	0.1238986
Mn	0.948066	0.6957298	0.251791
Mn	0.9479784	0.69204965	0.3769357
Mn	0.94854015	0.7003566	0.50233875
Mn	0.94984655	0.698809	0.62588295
Mn	0.9506901	0.7003778	0.75230885
Mn	0.949386	0.6960997	0.87735535
Mn	0.94945935	0.7991047	0.9998027
Mn	0.9480948	0.7990025	0.1272167
Mn	0.9504581	0.79999595	0.2512157
Mn	0.94937725	0.80102245	0.3764033
Mn	0.9532994	0.80248445	0.50431985
Mn	0.9542794	0.80063505	0.62559925
Mn	0.95147055	0.8005236	0.7517953
Mn	0.95321275	0.80165685	0.87580835
Mn	0.94914985	0.89878955	0.00144325
Mn	0.9500627	0.90107365	0.1246464
Mn	0.95174405	0.90160975	0.24797455
Mn	0.9499946	0.9022957	0.3732867
Mn	0.9527071	0.90341175	0.50024545
Mn	0.95246065	0.90067105	0.6269331
Mn	0.94947665	0.89965215	0.75092995
Mn	0.9502865	0.89915915	0.87427195
Mn	0.99879435	0.05014635	0.0604006
Mn	0.99945335	0.04948575	0.18681555
Mn	0.0023936	0.04950965	0.31223015
Mn	0.0012832	0.0495176	0.4369884
Mn	0.0004619	0.0507481	0.56344115
Mn	0.00281655	0.04877055	0.68857285
Mn	0.0014213	0.04926065	0.81311505
Mn	0.99947545	0.04951975	0.9360641
Mn	0.9977169	0.15077205	0.06198525
Mn	0.99808825	0.1480908	0.18467585
Mn	0.00103995	0.14799665	0.3135297
Mn	0.999776	0.14875715	0.4367981
Mn	0.00286285	0.14891865	0.5648595
Mn	0.9989228	0.1498307	0.6889399
Mn	0.999412	0.15146035	0.8111403
Mn	0.99929275	0.15241995	0.93872135
Mn	0.99759475	0.24968855	0.06029715
Mn	0.99844355	0.2514474	0.18741155
Mn	0.99994535	0.24984255	0.30915295
Mn	0.0015534	0.2476544	0.43921795
Mn	0.99844965	0.25194265	0.5643848
Mn	0.9997262	0.2499736	0.6887985
Mn	0.99955995	0.24994495	0.8128439
Mn	0.9978029	0.25135875	0.93628875
Mn	0.9990544	0.35138265	0.0614577
Mn	0.99502295	0.3547836	0.18381075
Mn	0.00082025	0.34876215	0.3130138
Mn	1.805E-05	0.35194655	0.4395594
Mn	0.99933655	0.3504163	0.5641089
Mn	2.285E-05	0.35026855	0.6890384
Mn	0.9987453	0.3513251	0.8146106
Mn	0.9992109	0.3500587	0.93708705
Mn	0.00027925	0.44998155	0.06223355
Mn	0.99991185	0.44892375	0.18765835
Mn	0.99956555	0.44985775	0.3129976
Mn	0.00020365	0.4515826	0.43919835
Mn	0.00161625	0.4467642	0.56317925
Mn	0.99873785	0.45137625	0.687771
Mn	5.885E-05	0.4511856	0.8132694
Mn	1.315E-05	0.44891715	0.9349338
Mn	0.99842195	0.54899325	0.0616452
Mn	0.9980227	0.55028955	0.18723115
Mn	0.9999044	0.54951095	0.31429875
Mn	0.9992593	0.54881615	0.4383645
Mn	0.0006261	0.5478503	0.56467785
Mn	0.0002036	0.55056375	0.6876098
Mn	0.00021415	0.5476248	0.8136902
Mn	0.99870935	0.55001155	0.9363814
Mn	0.99791715	0.6480639	0.0602033
Mn	0.0003174	0.64987495	0.18696105
Mn	0.9995746	0.6500631	0.31241405
Mn	0.00226645	0.6485126	0.4394153
Mn	0.00163825	0.6493435	0.5627244
Mn	0.99967865	0.64772025	0.6879694
Mn	0.9994526	0.64933215	0.81402345
Mn	0.9990876	0.649316	0.93610535
Mn	0.00020745	0.74988755	0.05797215
Mn	0.99609395	0.75046025	0.18851945
Mn	0.99921135	0.75021915	0.31412995
Mn	0.00198945	0.7513503	0.4412469
Mn	0.00097495	0.75035635	0.563068
Mn	0.0010711	0.75120205	0.68947065
Mn	0.99902005	0.74832025	0.81381175
Mn	0.99914245	0.74989765	0.9357543
Mn	0.99728465	0.85263155	0.06234045
Mn	0.0011145	0.8512865	0.18389615
Mn	0.9971383	0.85632855	0.313478
Mn	0.0006307	0.85033825	0.4403074
Mn	0.00351855	0.849936	0.5630092
Mn	0.00122745	0.8499915	0.6890426
Mn	0.00167505	0.85032485	0.8109664
Mn	0.9990579	0.8503605	0.93749175
Mn	1.95E-05	0.9489656	0.0611367
Mn	0.99965965	0.9485689	0.1845526
Mn	0.0013507	0.9503004	0.3116852
Mn	0.00233855	0.9475195	0.4398354
Mn	0.00374155	0.94982055	0.56301435
Mn	0.00086885	0.9502487	0.68867285
Mn	0.9994615	0.95218835	0.81307365
Mn	0.0008011	0.94702935	0.93770665
Mn	0.10057515	0.0502576	0.06311945
Mn	0.10054355	0.0472437	0.19128185
Mn	0.10166255	0.04747305	0.31109865
Mn	0.10398285	0.045414	0.4377724
Mn	0.1005003	0.0496827	0.5642466
Mn	0.0999014	0.04838785	0.6865057
Mn	0.1009659	0.05006405	0.81233785
Mn	0.0994425	0.04790435	0.9387812
Mn	0.0998404	0.1480665	0.06456505
Mn	0.0964544	0.1489495	0.1853892
Mn	0.1000997	0.1483388	0.3135053
Mn	0.10145315	0.1501344	0.43994325
Mn	0.10071035	0.14696635	0.56538645
Mn	0.1009496	0.1463921	0.6890628
Mn	0.0990527	0.14907125	0.8123504
Mn	0.0975211	0.1507995	0.93586855
Mn	0.09668115	0.2527629	0.05949345
Mn	0.0993546	0.249742	0.1849865
Mn	0.09895955	0.2498717	0.31409825
Mn	0.0976731	0.2510058	0.44114955
Mn	0.09895	0.2500503	0.5658005
Mn	0.09762825	0.2541788	0.68784845
Mn	0.0974702	0.2507299	0.81148315
Mn	0.09686595	0.25032655	0.9371542
Mn	0.0991811	0.35063155	0.06108955
Mn	0.09931845	0.35224675	0.1875836
Mn	0.0978845	0.35000925	0.31335275
Mn	0.10171135	0.35127755	0.43838225
Mn	0.0989466	0.35068765	0.56515135
Mn	0.09892615	0.3496648	0.6871785
Mn	0.0996206	0.3498425	0.8103409
Mn	0.0975657	0.3509717	0.93720525
Mn	0.0992565	0.4492745	0.06127465
Mn	0.10117785	0.4502224	0.1853514
Mn	0.0995395	0.450504	0.313093
Mn	0.1002643	0.45012865	0.437143
Mn	0.09876	0.45089035	0.5638902
Mn	0.09966685	0.4516365	0.68753005
Mn	0.0990386	0.45036305	0.81281025
Mn	0.0964975	0.4503237	0.93478375
Mn	0.10118715	0.5485302	0.06026335
Mn	0.1010103	0.5496941	0.18729575
Mn	0.10125245	0.54821395	0.31180095
Mn	0.09962605	0.5460313	0.4390968
Mn	0.09982375	0.54851335	0.5619284
Mn	0.0998407	0.5482625	0.68828085
Mn	0.0982063	0.54989125	0.81271145
Mn	0.10093295	0.54956805	0.9358531
Mn	0.09578855	0.64931845	0.0630256
Mn	0.0979788	0.64802845	0.1881333
Mn	0.1027976	0.64739705	0.31360755
Mn	0.10027555	0.64645575	0.43741425
Mn	0.09986625	0.6509869	0.5647643
Mn	0.09941725	0.6463274	0.6895663
Mn	0.097974	0.64739835	0.81564835
Mn	0.09856465	0.64972815	0.93656085
Mn	0.09959765	0.7520073	0.06234535
Mn	0.10021635	0.7509214	0.1867957
Mn	0.1013256	0.75118345	0.31280685
Mn	0.10101195	0.75093195	0.43925525
Mn	0.10002325	0.75081395	0.5641959
Mn	0.0985264	0.74927165	0.68977765
Mn	0.0994776	0.7479608	0.81370725
Mn	0.09764375	0.75103095	0.9379349
Mn	0.0984023	0.84942795	0.0628663
Mn	0.10136055	0.85166425	0.18565685
Mn	0.09937865	0.85086165	0.3124849
Mn	0.1025713	0.84988355	0.43871115
Mn	0.10140345	0.85308855	0.56285635
Mn	0.09959625	0.85060555	0.68851205
Mn	0.09952045	0.8497886	0.8124932
Mn	0.1000378	0.8497266	0.93476695
Mn	0.09975415	0.94974505	0.0605195
Mn	0.10412235	0.95008955	0.1862519
Mn	0.1018123	0.95157715	0.3114556
Mn	0.103546	0.95021455	0.43638505
Mn	0.10192455	0.9491476	0.5634514
Mn	0.1027773	0.95039705	0.68862015
Mn	0.10040615	0.94989275	0.81244905
Mn	0.10072215	0.9506369	0.9370041
Mn	0.20098885	0.0471865	0.0622669
Mn	0.200344	0.0482547	0.18877495
Mn	0.20253275	0.04792315	0.31275775
Mn	0.2036219	0.0458158	0.43769045
Mn	0.2011498	0.04741435	0.561539
Mn	0.2010528	0.0508903	0.6884744
Mn	0.19982495	0.0482452	0.81300635
Mn	0.1998453	0.04857055	0.9375798
Mn	0.20089745	0.1469337	0.0633545
Mn	0.20269245	0.145484	0.1888635
Mn	0.2003525	0.14672295	0.31381015
Mn	0.19864555	0.14565345	0.43913095
Mn	0.1996806	0.14580755	0.56351105
Mn	0.2002465	0.14808145	0.68742465
Mn	0.19725845	0.1471245	0.8143626
Mn	0.2017268	0.14782105	0.9369548
Mn	0.19593295	0.2554851	0.06045615
Mn	0.19798925	0.24887985	0.1907353
Mn	0.2007735	0.2509337	0.31236805
Mn	0.19721925	0.24792625	0.43787695
Mn	0.19881655	0.2508318	0.56518815
Mn	0.19805705	0.250501	0.6882957
Mn	0.1954878	0.25127155	0.8146294
Mn	0.19985585	0.252572	0.93645205
Mn	0.1977776	0.35618655	0.06156415
Mn	0.1981136	0.35263655	0.18805635
Mn	0.20164645	0.3499933	0.3126889
Mn	0.2002968	0.35059275	0.4394453
Mn	0.195171	0.3518351	0.5631654
Mn	0.197025	0.3538033	0.68560305
Mn	0.1984021	0.35223655	0.8116158
Mn	0.1965666	0.3515935	0.9375659
Mn	0.1999537	0.4501292	0.06170275
Mn	0.20145095	0.45086005	0.18597865
Mn	0.20083935	0.4489876	0.3134685
Mn	0.20024325	0.45040985	0.4380794
Mn	0.20051205	0.4512485	0.5631316
Mn	0.2004894	0.44857115	0.68871705
Mn	0.19831305	0.4503551	0.8120786
Mn	0.20075205	0.45042865	0.93669385
Mn	0.1995094	0.54945435	0.06049165
Mn	0.2012002	0.5485484	0.18662615
Mn	0.20033065	0.54973095	0.3137651
Mn	0.2012176	0.54745155	0.4369356
Mn	0.19976965	0.5476218	0.5622737
Mn	0.1988099	0.5479114	0.68676555
Mn	0.19775995	0.54849365	0.81162185
Mn	0.19743035	0.5476392	0.935234
Mn	0.2017404	0.64412	0.06134615
Mn	0.1999684	0.64430275	0.18793685
Mn	0.1999335	0.6486315	0.3131371
Mn	0.1994787	0.6495493	0.4395481
Mn	0.19990985	0.64838275	0.5645951
Mn	0.20014545	0.64805275	0.6868397
Mn	0.2001261	0.65174345	0.80255625
Mn	0.19890615	0.64532005	0.9386412
Mn	0.20070645	0.75413315	0.05965075
Mn	0.2052638	0.75825105	0.18664255
Mn	0.20209795	0.74948065	0.3154907
Mn	0.20211005	0.75025165	0.4379927
Mn	0.2002408	0.7495134	0.5643305
Mn	0.19872415	0.75132415	0.687931
Mn	0.1972772	0.7485447	0.8104371
Mn	0.19782235	0.7517317	0.9383687
Mn	0.19911495	0.853864	0.0574417
Mn	0.2011709	0.85275735	0.18515735
Mn	0.20191415	0.85150245	0.3128495
Mn	0.20122145	0.85010845	0.4383429
Mn	0.2011449	0.8496506	0.5645986
Mn	0.19961505	0.8502564	0.6884701
Mn	0.19882495	0.85115305	0.81192595
Mn	0.19960145	0.8532695	0.93701065
Mn	0.2005273	0.9498078	0.0609634
Mn	0.2007868	0.9507586	0.1879923
Mn	0.2040582	0.94916515	0.3125386
Mn	0.20055175	0.95171655	0.43787815
Mn	0.2008661	0.9526237	0.5625572
Mn	0.20014175	0.9498566	0.6869117
Mn	0.1994659	0.9514389	0.81143465
Mn	0.1996213	0.9495906	0.93593745
Mn	0.3012891	0.04960285	0.06347745
Mn	0.30242415	0.045892	0.18834355
Mn	0.30130995	0.04733675	0.31266805
Mn	0.30230185	0.0474989	0.43849575
Mn	0.30359455	0.04632995	0.5639455
Mn	0.3010807	0.04801665	0.6875136
Mn	0.2978456	0.0507014	0.8108487
Mn	0.30116005	0.0461233	0.938914
Mn	0.3037951	0.14588	0.0639219
Mn	0.30403965	0.14574035	0.189723
Mn	0.3032268	0.14368065	0.31645355
Mn	0.30157955	0.14279945	0.43957015
Mn	0.2981648	0.14666595	0.5627265
Mn	0.2999403	0.1473143	0.68653205
Mn	0.29690935	0.1477872	0.8127088
Mn	0.29977915	0.14598615	0.9364197
Mn	0.29537085	0.2511607	0.0619633
Mn	0.3004112	0.24704815	0.1896563
Mn	0.30301135	0.2470529	0.3156229
Mn	0.3016063	0.248615	0.43770215
Mn	0.3024155	0.2502229	0.56068115
Mn	0.29749495	0.2539936	0.68983685
Mn	0.2984117	0.2505106	0.81081015
Mn	0.2994019	0.25006965	0.9410095
Mn	0.29915315	0.3510065	0.0604463
Mn	0.2990236	0.3523127	0.1867534
Mn	0.29849355	0.353367	0.3137094
Mn	0.29783785	0.3579289	0.4389231
Mn	0.2989581	0.35595815	0.5620415
Mn	0.2975026	0.3537335	0.68686785
Mn	0.29733775	0.35139405	0.8126296
Mn	0.3014842	0.35412335	0.93843935
Mn	0.2995138	0.4514137	0.06144055
Mn	0.3009183	0.45324735	0.1861941
Mn	0.30077	0.4501104	0.31321855
Mn	0.30105355	0.4510356	0.4402204
Mn	0.30064	0.449857	0.56411935
Mn	0.29757675	0.451635	0.6866937
Mn	0.2978545	0.4508839	0.8115818
Mn	0.29973005	0.45136355	0.93670425
Mn	0.29989165	0.5477766	0.06333165
Mn	0.29976175	0.5499085	0.1873616
Mn	0.2998986	0.5475027	0.3125007
Mn	0.30032465	0.55020595	0.43847495
Mn	0.30082905	0.5481272	0.56380215
Mn	0.29991895	0.5501048	0.6875358
Mn	0.2999542	0.54816985	0.8125743
Mn	0.30163745	0.547417	0.93712005
Mn	0.2994569	0.6499764	0.06363575
Mn	0.3018355	0.65060755	0.1896908
Mn	0.30126545	0.6468804	0.3141698
Mn	0.3036252	0.6458372	0.43849185
Mn	0.30168225	0.64989215	0.56224645
Mn	0.29932745	0.64426675	0.6912464
Mn	0.2978226	0.648389	0.81156225
Mn	0.29976525	0.6478889	0.9354059
Mn	0.2980496	0.75489275	0.0615955
Mn	0.3043811	0.75438445	0.18579495
Mn	0.2995331	0.75129485	0.3152397
Mn	0.3004149	0.750321	0.43809555
Mn	0.3002712	0.75339315	0.5598093
Mn	0.2984789	0.75366325	0.6842198
Mn	0.29917175	0.7517711	0.8127259
Mn	0.2978493	0.7539898	0.93746125
Mn	0.30098675	0.85119825	0.0631358
Mn	0.30051905	0.85149875	0.1875904
Mn	0.30131665	0.85121735	0.3125785
Mn	0.3009841	0.85360905	0.43893605
Mn	0.29982335	0.8515432	0.56354065
Mn	0.3019484	0.8493591	0.6878693
Mn	0.29839385	0.8558692	0.8098432
Mn	0.30071055	0.8512215	0.9359573
Mn	0.3008068	0.95131405	0.0631274
Mn	0.3030576	0.9495524	0.1878352
Mn	0.30279415	0.94804025	0.3138582
Mn	0.299368	0.94980055	0.43787295
Mn	0.30067365	0.94952225	0.5630806
Mn	0.3008246	0.9502787	0.6874763
Mn	0.30003215	0.95049295	0.8115852
Mn	0.2996043	0.9509463	0.9353099
Mn	0.40320615	0.04757865	0.0639484
Mn	0.40224905	0.04685305	0.1905526
Mn	0.40155805	0.0491707	0.31318675
Mn	0.39937595	0.04758735	0.4361623
Mn	0.39883955	0.049706	0.5609314
Mn	0.4004668	0.04943435	0.6867223
Mn	0.4004088	0.0470554	0.8131158
Mn	0.4005257	0.04781395	0.93696565
Mn	0.40109	0.1445217	0.0633157
Mn	0.4025802	0.14653855	0.1903833
Mn	0.40147515	0.14678565	0.3128868
Mn	0.39947965	0.14696685	0.43861235
Mn	0.3989607	0.14919335	0.56161485
Mn	0.4044134	0.13915695	0.69163235
Mn	0.40142925	0.1421546	0.81415855
Mn	0.40149895	0.1422707	0.93919455
Mn	0.3963403	0.25576775	0.06016875
Mn	0.40271285	0.24435795	0.18924285
Mn	0.4042028	0.2448864	0.3172625
Mn	0.40064285	0.2474311	0.4378815
Mn	0.4005601	0.25134055	0.56322225
Mn	0.40052455	0.2517641	0.6854264
Mn	0.39957695	0.25454615	0.81597065
Mn	0.3958326	0.2608862	0.93486875
Mn	0.4006086	0.35262955	0.0629766
Mn	0.3996611	0.3522796	0.18967805
Mn	0.39726655	0.35682125	0.31125075
Mn	0.39975675	0.35064255	0.4369702
Mn	0.3998286	0.35493635	0.562873
Mn	0.40021305	0.3548058	0.68897115
Mn	0.398858	0.35361865	0.81150095
Mn	0.39759685	0.35378035	0.93407185
Mn	0.39896435	0.44947875	0.06344945
Mn	0.4001031	0.45107095	0.1864402
Mn	0.4006575	0.45029975	0.312054
Mn	0.40005535	0.45163325	0.43714165
Mn	0.4000775	0.44933115	0.56316345
Mn	0.39904695	0.45000075	0.68708305
Mn	0.3990358	0.44944345	0.8101351
Mn	0.3989319	0.4515925	0.9350033
Mn	0.4004605	0.5488778	0.06205475
Mn	0.40247095	0.5484508	0.1873902
Mn	0.400372	0.55042215	0.31251745
Mn	0.40023675	0.5487664	0.43750695
Mn	0.3994688	0.5472111	0.5624744
Mn	0.40018225	0.54872605	0.68656575
Mn	0.40033	0.54860405	0.81336165
Mn	0.40095895	0.5493638	0.93701565
Mn	0.40420355	0.6470465	0.0630133
Mn	0.40206115	0.6485669	0.187515
Mn	0.4014161	0.64677925	0.31318005
Mn	0.40102055	0.6430672	0.43809285
Mn	0.4007445	0.64834175	0.56078095
Mn	0.4005005	0.64429475	0.6877348
Mn	0.40034575	0.64185295	0.81096375
Mn	0.402008	0.64700665	0.94241415
Mn	0.39870575	0.7498884	0.0647207
Mn	0.4009608	0.7485144	0.18981265
Mn	0.3997402	0.752363	0.3120145
Mn	0.4011124	0.75410745	0.43584585
Mn	0.3976978	0.75757535	0.5621451
Mn	0.40100265	0.75138445	0.68673085
Mn	0.39838315	0.75210465	0.81423755
Mn	0.4000807	0.75104065	0.9363995
Mn	0.39900015	0.851679	0.06378245
Mn	0.3962803	0.8563984	0.188686
Mn	0.4006379	0.85248675	0.31231875
Mn	0.400685	0.8540074	0.4375625
Mn	0.4012974	0.85265125	0.56124425
Mn	0.39925665	0.85541905	0.6871428
Mn	0.3997161	0.85228415	0.81192605
Mn	0.39980145	0.852025	0.93768915
Mn	0.4018267	0.9490947	0.06097905
Mn	0.40119435	0.9515306	0.187204
Mn	0.4003231	0.9510893	0.31175315
Mn	0.4006245	0.9505496	0.4364768
Mn	0.4001876	0.9477899	0.56262295
Mn	0.39898415	0.9495623	0.6869905
Mn	0.39988035	0.9501447	0.8122007
Mn	0.40007855	0.94904755	0.9371964
Mn	0.5006034	0.04701145	0.0653923
Mn	0.5001358	0.04897055	0.18895575
Mn	0.5009019	0.04965525	0.3123938
Mn	0.4982561	0.04867925	0.43315305
Mn	0.4988912	0.04851855	0.5619197
Mn	0.4995934	0.04927435	0.68597875
Mn	0.5015442	0.0492992	0.8117495
Mn	0.50034985	0.0464082	0.9375831
Mn	0.50249465	0.14754735	0.05997185
Mn	0.5021291	0.14455295	0.19043055
Mn	0.49981205	0.1488656	0.31395
Mn	0.49999975	0.1464555	0.43807215
Mn	0.4993341	0.1497872	0.5619994
Mn	0.50194085	0.14533765	0.6866559
Mn	0.5019326	0.14492965	0.81255225
Mn	0.5008244	0.14507095	0.9364715
Mn	0.5037946	0.2514895	0.0645203
Mn	0.5012645	0.24766335	0.18876765
Mn	0.5033171	0.24730625	0.31461295
Mn	0.49972745	0.2493984	0.43537
Mn	0.5019258	0.2524829	0.55969725
Mn	0.5015978	0.2511883	0.6879081
Mn	0.5036529	0.25038045	0.81271305
Mn	0.50637195	0.2482257	0.93963585
Mn	0.5012904	0.35213385	0.06345945
Mn	0.49613715	0.3570435	0.18784435
Mn	0.49968265	0.35384445	0.3115464
Mn	0.49734845	0.3496524	0.43830905
Mn	0.4994572	0.3524021	0.56138495
Mn	0.5021533	0.35311155	0.6882572
Mn	0.4992133	0.3495764	0.8121573
Mn	0.4999404	0.35413925	0.93653495
Mn	0.49871885	0.45161565	0.06199535
Mn	0.49861825	0.45090365	0.18811015
Mn	0.50073045	0.44980545	0.31265535
Mn	0.49869525	0.44998745	0.43673135
Mn	0.49860605	0.45226295	0.5632486
Mn	0.50107745	0.44970135	0.6892744
Mn	0.49913445	0.45091675	0.8142733
Mn	0.50092565	0.45325475	0.9375192
Mn	0.50162095	0.5489395	0.06219025
Mn	0.50033585	0.54982335	0.1881453
Mn	0.50072605	0.5452097	0.3127303
Mn	0.5001829	0.5491985	0.438529
Mn	0.5003823	0.5479849	0.5638253
Mn	0.49987	0.54723495	0.68682755
Mn	0.5011994	0.54837545	0.81168445
Mn	0.501218	0.5472277	0.93888115
Mn	0.50211725	0.6450719	0.06081735
Mn	0.50273395	0.6489311	0.19099755
Mn	0.50126715	0.6458639	0.31551305
Mn	0.50066565	0.64483015	0.43833385
Mn	0.5021501	0.6433352	0.56085455
Mn	0.50317505	0.644484	0.6874123
Mn	0.5001649	0.64517235	0.81547195
Mn	0.49999865	0.6487187	0.9416594
Mn	0.50238205	0.74861095	0.06294755
Mn	0.50031355	0.749847	0.1885261
Mn	0.50083435	0.75488325	0.3121376
Mn	0.49847635	0.7513505	0.43542625
Mn	0.49682745	0.7535712	0.56163035
Mn	0.49868025	0.75158615	0.6884944
Mn	0.50097185	0.753378	0.8119608
Mn	0.49820005	0.7509084	0.93750035
Mn	0.4995585	0.85077295	0.0628579
Mn	0.49942635	0.8513892	0.18775065
Mn	0.4986049	0.853206	0.3113784
Mn	0.49806515	0.8509499	0.43481985
Mn	0.4962339	0.8546639	0.5614731
Mn	0.5005215	0.8526076	0.6874193
Mn	0.5001762	0.85097755	0.81411625
Mn	0.5013424	0.8503377	0.93811195
Mn	0.49948955	0.95054675	0.06287485
Mn	0.4987675	0.95094425	0.18709975
Mn	0.4987836	0.95030035	0.31294655
Mn	0.4986552	0.95011965	0.435345
Mn	0.4953741	0.95168085	0.56016035
Mn	0.50013935	0.94987995	0.6867479
Mn	0.49956725	0.95020385	0.81227735
Mn	0.49877105	0.9505477	0.9367594
Mn	0.5994761	0.04967745	0.0650697
Mn	0.5993832	0.04507275	0.1879446
Mn	0.5981548	0.0494887	0.31316575
Mn	0.5977181	0.0489551	0.43681635
Mn	0.5982615	0.04786505	0.5620253
Mn	0.59773145	0.04832405	0.68672945
Mn	0.6012142	0.04837635	0.81465
Mn	0.60009425	0.0447203	0.9385413
Mn	0.60171515	0.1459419	0.0620435
Mn	0.60059765	0.14582295	0.1873208
Mn	0.6000244	0.14720055	0.3133859
Mn	0.5996667	0.14345225	0.43867695
Mn	0.5987858	0.1488391	0.56326255
Mn	0.59821105	0.1499607	0.68624255
Mn	0.60202285	0.1474853	0.8133607
Mn	0.60129445	0.14842425	0.9374386
Mn	0.60277785	0.24637165	0.0637111
Mn	0.60028675	0.2494692	0.1913261
Mn	0.60278135	0.2493676	0.3117824
Mn	0.6027879	0.2494344	0.43765
Mn	0.5982505	0.2486774	0.560981
Mn	0.60199125	0.2505312	0.6858854
Mn	0.6020771	0.2485006	0.81396615
Mn	0.60053275	0.24774125	0.9381507
Mn	0.6013403	0.35618835	0.0614164
Mn	0.5993911	0.34810425	0.18842165
Mn	0.5992467	0.35135495	0.31337275
Mn	0.6009621	0.35124765	0.437583
Mn	0.59998855	0.34958415	0.56166435
Mn	0.59996575	0.3524834	0.6908846
Mn	0.5993415	0.3495189	0.81089465
Mn	0.60061465	0.3518083	0.9357899
Mn	0.60018925	0.45279095	0.0624762
Mn	0.59936095	0.451911	0.1862748
Mn	0.6005529	0.45098925	0.3142348
Mn	0.59986075	0.45413235	0.435024
Mn	0.60049365	0.44920745	0.5609544
Mn	0.60162285	0.45028935	0.6876209
Mn	0.60209705	0.4482051	0.81397805
Mn	0.60051525	0.45063625	0.9370357
Mn	0.6004389	0.5492587	0.0627882
Mn	0.6005445	0.5491191	0.18903895
Mn	0.6019109	0.5493104	0.31110665
Mn	0.60136225	0.54908495	0.43648615
Mn	0.59934535	0.5480038	0.562618
Mn	0.6006581	0.54734475	0.68854585
Mn	0.59999865	0.54881535	0.8142138
Mn	0.60081415	0.549212	0.9373029
Mn	0.6007932	0.6490773	0.06375875
Mn	0.60069175	0.6502631	0.18909655
Mn	0.59961445	0.6497276	0.31312415
Mn	0.5983606	0.64906095	0.436917
Mn	0.60124715	0.64686805	0.5597206
Mn	0.604224	0.6455652	0.6881862
Mn	0.6024284	0.64642695	0.8131111
Mn	0.60085405	0.64866965	0.9379428
Mn	0.59971605	0.75086475	0.0633196
Mn	0.5994721	0.75039205	0.18873765
Mn	0.5997582	0.7510284	0.3100525
Mn	0.59891115	0.75107845	0.43635335
Mn	0.59415805	0.7555438	0.55685375
Mn	0.59922035	0.74853885	0.6869892
Mn	0.60155205	0.7483064	0.81245055
Mn	0.60143	0.75058195	0.9372897
Mn	0.59743	0.85167155	0.06437925
Mn	0.59776415	0.8515028	0.18730735
Mn	0.59969125	0.8544823	0.311121
Mn	0.5974158	0.8524485	0.4359
Mn	0.5971399	0.8538224	0.5618978
Mn	0.60078425	0.849896	0.6884151
Mn	0.60066095	0.8516085	0.81454115
Mn	0.59996875	0.8514966	0.9400613
Mn	0.60138995	0.9492142	0.06222145
Mn	0.59819085	0.95213295	0.1874748
Mn	0.5993133	0.9496922	0.3132953
Mn	0.5960063	0.95023525	0.43714515
Mn	0.5972696	0.9508708	0.56047505
Mn	0.59962685	0.9494841	0.68765315
Mn	0.59958185	0.94937275	0.81303315
Mn	0.602652	0.94861815	0.93868255
Mn	0.70036695	0.04736515	0.0634532
Mn	0.69859165	0.0497171	0.18685605
Mn	0.69941015	0.0519079	0.31270745
Mn	0.69812155	0.0504572	0.4361519
Mn	0.69771095	0.05099205	0.5636037
Mn	0.7005133	0.0471374	0.6889615
Mn	0.6994633	0.05316115	0.81241175
Mn	0.70078255	0.050283	0.9364382
Mn	0.700295	0.14814975	0.06591005
Mn	0.6980427	0.14712235	0.1889519
Mn	0.701255	0.1500742	0.3141818
Mn	0.7003043	0.1499939	0.43821635
Mn	0.69986915	0.15022065	0.56249155
Mn	0.70053755	0.14991215	0.68645645
Mn	0.70089335	0.14827065	0.81400435
Mn	0.70159735	0.14960925	0.93880155
Mn	0.70108475	0.24855695	0.06370855
Mn	0.7007841	0.25002945	0.18733855
Mn	0.7000452	0.2494801	0.3119909
Mn	0.70120255	0.2491031	0.43836725
Mn	0.70069675	0.2484847	0.5635954
Mn	0.70034595	0.25184795	0.68806445
Mn	0.7022059	0.24789725	0.8127821
Mn	0.7003945	0.2503562	0.9364444
Mn	0.70008275	0.3500493	0.06229745
Mn	0.6989889	0.3516239	0.18589985
Mn	0.69849965	0.35142885	0.3130058
Mn	0.69933885	0.3505589	0.43694175
Mn	0.70095705	0.35449155	0.55959635
Mn	0.7019021	0.3503091	0.68786595
Mn	0.70011705	0.35127	0.8121187
Mn	0.70106555	0.35315265	0.9367587
Mn	0.69920025	0.4509416	0.0613067
Mn	0.70024075	0.44936695	0.1851949
Mn	0.69872345	0.4488013	0.3131743
Mn	0.69963585	0.44988515	0.4369929
Mn	0.6996392	0.4514974	0.5618424
Mn	0.69971935	0.4492747	0.6882225
Mn	0.70171325	0.4502713	0.8123875
Mn	0.7014479	0.44996225	0.93749815
Mn	0.70064365	0.5497351	0.0630894
Mn	0.6989515	0.55094995	0.18648455
Mn	0.6996044	0.54982395	0.31104545
Mn	0.69956025	0.54822525	0.43870495
Mn	0.70178295	0.5468098	0.5631863
Mn	0.69968535	0.54628975	0.6899098
Mn	0.6997925	0.5499835	0.8130084
Mn	0.7019327	0.54654035	0.93563895
Mn	0.70189825	0.6498778	0.06357455
Mn	0.70112165	0.6514408	0.18558065
Mn	0.6987136	0.6486004	0.3136571
Mn	0.70197955	0.64480175	0.4378188
Mn	0.7033355	0.64376085	0.56193405
Mn	0.69925	0.64709815	0.6888418
Mn	0.70375055	0.6488511	0.8144399
Mn	0.7013084	0.64985075	0.93727705
Mn	0.70080425	0.7491609	0.0613992
Mn	0.6987516	0.7533562	0.1867833
Mn	0.6982142	0.7501701	0.30989995
Mn	0.6982022	0.7543916	0.4369335
Mn	0.69579645	0.74701995	0.5613241
Mn	0.70024275	0.75031995	0.68784625
Mn	0.6995759	0.74745305	0.8141793
Mn	0.7008135	0.74824815	0.93908385
Mn	0.6985805	0.85093695	0.0637979
Mn	0.6973927	0.85129625	0.1873655
Mn	0.6980505	0.8525189	0.31123215
Mn	0.6969552	0.85153855	0.43586465
Mn	0.6968176	0.85253765	0.56120625
Mn	0.697533	0.85362065	0.687166
Mn	0.69954605	0.85145925	0.8156813
Mn	0.7004718	0.85226415	0.93847435
Mn	0.69835135	0.94944715	0.06210975
Mn	0.6996415	0.950546	0.1863422
Mn	0.6980588	0.95140225	0.3107056
Mn	0.6954913	0.95020075	0.4361496
Mn	0.698225	0.94932485	0.56204625
Mn	0.7004339	0.948419	0.68876095
Mn	0.6981123	0.94975215	0.8142668
Mn	0.7009897	0.95090425	0.93757865
Mn	0.8002677	0.05003155	0.06187525
Mn	0.79725275	0.0499529	0.18687615
Mn	0.7988077	0.0501562	0.31203645
Mn	0.7984912	0.04975735	0.4377502
Mn	0.79775545	0.0491497	0.56258165
Mn	0.8005251	0.0509934	0.6906408
Mn	0.80168435	0.0475398	0.81266375
Mn	0.80042155	0.0495967	0.9393714
Mn	0.79811765	0.15135835	0.0612883
Mn	0.7993444	0.1488561	0.18841345
Mn	0.800872	0.15037435	0.31305845
Mn	0.799337	0.14981705	0.4371555
Mn	0.79983065	0.14829255	0.5645538
Mn	0.80082875	0.14847265	0.68865335
Mn	0.80414315	0.14989485	0.8119707
Mn	0.7993345	0.14992335	0.93798395
Mn	0.7994382	0.25244815	0.06160275
Mn	0.79889485	0.24935485	0.18562085
Mn	0.79965485	0.25242395	0.31164955
Mn	0.8001422	0.25042845	0.4389989
Mn	0.801385	0.24948025	0.5661726
Mn	0.80016675	0.25008655	0.6868311
Mn	0.80167005	0.252643	0.8123472
Mn	0.8024774	0.2501002	0.93912475
Mn	0.8009327	0.35015615	0.0609276
Mn	0.79977995	0.3523774	0.18673515
Mn	0.79951795	0.3507372	0.31279035
Mn	0.8003673	0.3531682	0.436946
Mn	0.7999783	0.3501588	0.56119435
Mn	0.8008677	0.3494695	0.6884028
Mn	0.79994365	0.34925445	0.81264785
Mn	0.7995639	0.35135065	0.9376847
Mn	0.79793155	0.45168455	0.06193925
Mn	0.798901	0.45039055	0.18649105
Mn	0.79904145	0.452423	0.3122034
Mn	0.79957245	0.44964005	0.4383188
Mn	0.80084355	0.45054635	0.5620466
Mn	0.80059135	0.44862935	0.6886052
Mn	0.79984565	0.44881745	0.81252085
Mn	0.7991721	0.4496331	0.93729285
Mn	0.79990235	0.54817905	0.0640604
Mn	0.79768935	0.54946585	0.1849758
Mn	0.80014415	0.55004055	0.3116181
Mn	0.80080605	0.5488226	0.4379401
Mn	0.8012679	0.54860175	0.5632134
Mn	0.8014734	0.5512176	0.68821625
Mn	0.80100445	0.5498559	0.8145048
Mn	0.80057335	0.54896025	0.9366014
Mn	0.7989047	0.6512221	0.06117355
Mn	0.79787985	0.6486469	0.18820895
Mn	0.79914815	0.6512799	0.3146713
Mn	0.7967868	0.64857705	0.4386723
Mn	0.8035237	0.6449346	0.56691525
Mn	0.8017869	0.64759055	0.6898161
Mn	0.801643	0.64952655	0.8134921
Mn	0.7989848	0.64887895	0.9384587
Mn	0.79905735	0.75058895	0.06151375
Mn	0.79980385	0.74922965	0.18694695
Mn	0.7979788	0.7519098	0.3107057
Mn	0.80069265	0.74844095	0.43627655
Mn	0.8009601	0.7510203	0.56494235
Mn	0.8009441	0.74680905	0.6887595
Mn	0.80125455	0.7501616	0.8132959
Mn	0.80047265	0.7528264	0.93913945
Mn	0.7991262	0.85042985	0.0625954
Mn	0.7969489	0.8535347	0.1826382
Mn	0.7964962	0.8526918	0.3099725
Mn	0.7978832	0.850171	0.43310075
Mn	0.79891075	0.84908725	0.5641399
Mn	0.80136095	0.849941	0.6903872
Mn	0.8005013	0.8517079	0.81364895
Mn	0.8003483	0.8494353	0.93823175
Mn	0.79961835	0.95060765	0.06330125
Mn	0.8000795	0.94975095	0.18735175
Mn	0.796711	0.95085675	0.31229
Mn	0.79766965	0.95409535	0.43543015
Mn	0.79555385	0.9532943	0.5619534
Mn	0.7979618	0.95166435	0.6870537
Mn	0.80027555	0.9507263	0.81521155
Mn	0.7999081	0.9508072	0.93858415
Mn	0.89810045	0.05027285	0.06281535
Mn	0.8969545	0.05126905	0.1866819
Mn	0.8973705	0.0486519	0.31338015
Mn	0.89944535	0.0507738	0.4379245
Mn	0.90031325	0.0504171	0.5616909
Mn	0.90202575	0.0488259	0.68837295
Mn	0.90182365	0.04965325	0.81299855
Mn	0.8992511	0.05141295	0.9378544
Mn	0.8993976	0.14942065	0.062584
Mn	0.8992196	0.150196	0.18809855
Mn	0.8998461	0.14774735	0.3131757
Mn	0.9000779	0.15066475	0.4386064
Mn	0.8989356	0.15009545	0.56436165
Mn	0.9000507	0.1496866	0.6880801
Mn	0.89996125	0.15151065	0.81332245
Mn	0.89903605	0.14887815	0.93824545
Mn	0.89992645	0.25021965	0.06159605
Mn	0.89696105	0.2503129	0.1872807
Mn	0.8969294	0.24794735	0.31335575
Mn	0.8970052	0.2511097	0.4380359
Mn	0.89957695	0.25167265	0.56324875
Mn	0.9005302	0.24874	0.6893039
Mn	0.89989915	0.2480024	0.8133734
Mn	0.89951065	0.2503845	0.9373393
Mn	0.9004879	0.34992215	0.0608706
Mn	0.9006411	0.35036295	0.18668345
Mn	0.89879895	0.35224735	0.31035755
Mn	0.90101875	0.3507962	0.4381291
Mn	0.89947395	0.35209485	0.5635034
Mn	0.9009651	0.3500697	0.6862727
Mn	0.8997866	0.350676	0.81270695
Mn	0.90020045	0.35167285	0.93765795
Mn	0.89866425	0.4478103	0.06244125
Mn	0.89902685	0.450157	0.18621035
Mn	0.9019036	0.4497969	0.31261465
Mn	0.8997873	0.4500355	0.4390775
Mn	0.90203295	0.45043025	0.5665949
Mn	0.9001858	0.44943135	0.6905689
Mn	0.8985174	0.44910885	0.81128965
Mn	0.89910575	0.4511266	0.93847995
Mn	0.89875145	0.54793795	0.0613597
Mn	0.8990188	0.54851945	0.18579175
Mn	0.89798645	0.549677	0.31239905
Mn	0.9000546	0.5507203	0.43832045
Mn	0.90086045	0.5495002	0.56408965
Mn	0.89905165	0.55061755	0.6899209
Mn	0.9015206	0.5495836	0.8129589
Mn	0.90139205	0.5496285	0.9371627
Mn	0.89717935	0.650653	0.06168955
Mn	0.9001774	0.64807675	0.1856621
Mn	0.89712995	0.6489401	0.3111918
Mn	0.8990958	0.64840395	0.43691265
Mn	0.9008193	0.64908965	0.56531605
Mn	0.90162325	0.6474731	0.69047035
Mn	0.8989425	0.6497121	0.81387205
Mn	0.9009668	0.6486861	0.9403281
Mn	0.8977081	0.75036	0.0632092
Mn	0.8996726	0.74867055	0.1849249
Mn	0.8987268	0.7493141	0.3109114
Mn	0.8997757	0.7486392	0.4384792
Mn	0.8996857	0.751218	0.56387385
Mn	0.8997604	0.74807385	0.69044365
Mn	0.90248525	0.74880685	0.8151285
Mn	0.90014125	0.7500881	0.93707885
Mn	0.8986471	0.8502943	0.06228565
Mn	0.8993227	0.85170845	0.18469505
Mn	0.89775995	0.8516761	0.31031865
Mn	0.8995105	0.85014085	0.4368114
Mn	0.9016263	0.84944735	0.5641166
Mn	0.90139535	0.84631385	0.6896978
Mn	0.90178545	0.8503756	0.8152076
Mn	0.9002223	0.85046455	0.93911705
Mn	0.89937905	0.94947045	0.06281565
Mn	0.89951195	0.9491291	0.1863527
Mn	0.897897	0.9521419	0.31020405
Mn	0.90046995	0.94923525	0.43553845
Mn	0.9001668	0.95110045	0.56305585
Mn	0.9016838	0.951366	0.68853245
Mn	0.89915175	0.952481	0.81387275
Mn	0.90020325	0.95250035	0.9361368
Mn	0.05167255	0.9980265	0.0606501
Mn	0.0515697	0.99931805	0.18637255
Mn	0.05269375	0.99948515	0.31154215
Mn	0.0506753	0.99923515	0.4381987
Mn	0.05258775	0.99866375	0.56335825
Mn	0.05221445	0.9992745	0.68803275
Mn	0.05072765	0.0008486	0.81271265
Mn	0.0511368	0.99921745	0.937214
Mn	0.04963885	0.09986075	0.06115765
Mn	0.0474337	0.0943636	0.1871946
Mn	0.04970675	0.09727015	0.31128375
Mn	0.05165165	0.099637	0.44135015
Mn	0.0520564	0.096548	0.56740575
Mn	0.04862735	0.09950635	0.6886277
Mn	0.0486518	0.0980127	0.8132806
Mn	0.0491571	0.09919025	0.935512
Mn	0.04786895	0.1991228	0.0613268
Mn	0.04732965	0.192971	0.1873896
Mn	0.05153865	0.2006081	0.3143882
Mn	0.0510736	0.1981865	0.4376707
Mn	0.04975465	0.2004854	0.56448655
Mn	0.04882465	0.20070625	0.6911509
Mn	0.0487265	0.2012212	0.81482435
Mn	0.0481303	0.2005257	0.93820775
Mn	0.04903195	0.3011067	0.0604969
Mn	0.0474211	0.3015199	0.18712105
Mn	0.0504305	0.30033535	0.31076975
Mn	0.0460077	0.2981704	0.44012005
Mn	0.05128215	0.2981577	0.5634182
Mn	0.04835385	0.3034596	0.6883555
Mn	0.0501112	0.30239705	0.8119354
Mn	0.04937485	0.30130425	0.93768
Mn	0.0495893	0.40016755	0.06110665
Mn	0.04757785	0.40266835	0.1861411
Mn	0.0498098	0.4001178	0.31164025
Mn	0.0506935	0.40031695	0.43876355
Mn	0.04948115	0.40014365	0.56223145
Mn	0.0493339	0.4014796	0.686146
Mn	0.04829875	0.4015963	0.81333825
Mn	0.04870175	0.39913115	0.9382409
Mn	0.04840815	0.50064715	0.0608872
Mn	0.05058055	0.4998623	0.18432815
Mn	0.0493044	0.4983147	0.31169945
Mn	0.0513694	0.5010388	0.4386425
Mn	0.0511744	0.49930015	0.563859
Mn	0.05005205	0.49950635	0.688596
Mn	0.0480058	0.4985817	0.8123655
Mn	0.0495757	0.50047235	0.93674385
Mn	0.04814385	0.5963535	0.06231635
Mn	0.04705445	0.59706245	0.1873452
Mn	0.0505414	0.59844975	0.31172015
Mn	0.0486903	0.59670075	0.43875815
Mn	0.0492113	0.5995852	0.56342555
Mn	0.05040105	0.59625885	0.68887485
Mn	0.0489622	0.59870625	0.81309865
Mn	0.0477535	0.5967621	0.9375729
Mn	0.048258	0.7015249	0.0624831
Mn	0.0499841	0.69704695	0.18867045
Mn	0.04582875	0.69702145	0.313922
Mn	0.0504666	0.6949675	0.4443837
Mn	0.0492201	0.69699115	0.5666767
Mn	0.0475248	0.6940655	0.6896581
Mn	0.048742	0.70046745	0.8128738
Mn	0.0492309	0.69989	0.937246
Mn	0.0502351	0.801106	0.06015685
Mn	0.05142495	0.80484995	0.18708755
Mn	0.05347605	0.805234	0.3109986
Mn	0.0511621	0.80257785	0.43747295
Mn	0.05091165	0.7996668	0.5639058
Mn	0.05066245	0.7998961	0.6936024
Mn	0.05013995	0.7997196	0.81293905
Mn	0.0507185	0.8024886	0.9346489
Mn	0.05019655	0.9017123	0.0619966
Mn	0.05500895	0.9038827	0.18651875
Mn	0.0509174	0.9028389	0.3112267
Mn	0.0536335	0.89942745	0.43879955
Mn	0.0517422	0.90282655	0.5639199
Mn	0.0509052	0.90019525	0.6887134
Mn	0.0504767	0.8996149	0.81395205
Mn	0.048493	0.9026604	0.9362352
Mn	0.14873805	0.99848195	0.06200565
Mn	0.15329615	5.46E-05	0.18737185
Mn	0.1540411	0.00147225	0.31119375
Mn	0.15165875	0.99936965	0.4377497
Mn	0.15007835	0.0005437	0.56276795
Mn	0.1517087	0.9995342	0.68661375
Mn	0.1490992	0.9980495	0.81300895
Mn	0.1519709	0.99841645	0.93650305
Mn	0.1480577	0.1008287	0.06120795
Mn	0.1503531	0.099104	0.18929655
Mn	0.1503872	0.0999903	0.3128515
Mn	0.1528701	0.098644	0.43901705
Mn	0.15067745	0.09944695	0.5626467
Mn	0.15050945	0.0994487	0.687532
Mn	0.1483477	0.09770185	0.81200325
Mn	0.1470604	0.09731975	0.9374793
Mn	0.14829015	0.20061315	0.0615606
Mn	0.14624365	0.19902355	0.18720285
Mn	0.14924335	0.19623915	0.3158167
Mn	0.15008645	0.19891845	0.4388559
Mn	0.1523074	0.1977786	0.5647589
Mn	0.14720055	0.2018142	0.68499185
Mn	0.1488414	0.20011675	0.8106273
Mn	0.1486652	0.20073075	0.93542255
Mn	0.1485879	0.30156735	0.0609929
Mn	0.15164535	0.30178535	0.18383235
Mn	0.15013215	0.3021989	0.313754
Mn	0.15007245	0.30141895	0.4385034
Mn	0.1512599	0.30419375	0.56118915
Mn	0.149772	0.30075185	0.68819235
Mn	0.14909855	0.30088385	0.8124222
Mn	0.14904435	0.30109385	0.93468775
Mn	0.14942575	0.4010844	0.06112445
Mn	0.1505851	0.4011585	0.1861823
Mn	0.1498931	0.40224945	0.3127598
Mn	0.15103285	0.40094565	0.43873835
Mn	0.1496317	0.39992435	0.56306355
Mn	0.15066555	0.40101445	0.6880046
Mn	0.1502464	0.4004126	0.8121911
Mn	0.14958645	0.40086905	0.9383355
Mn	0.15026875	0.49953995	0.06071955
Mn	0.14964055	0.5005027	0.18439865
Mn	0.14847495	0.49976415	0.3124203
Mn	0.1510376	0.4973514	0.43826135
Mn	0.14919895	0.49822955	0.56408395
Mn	0.14918015	0.49753415	0.68841955
Mn	0.14771105	0.50072585	0.8118706
Mn	0.14865595	0.49926065	0.9349218
Mn	0.1477082	0.5981601	0.0597174
Mn	0.1495843	0.5982761	0.18812425
Mn	0.1519277	0.59808485	0.31396855
Mn	0.1510418	0.5989423	0.43787545
Mn	0.15112625	0.59795385	0.56323705
Mn	0.14971305	0.5986313	0.6876896
Mn	0.1481122	0.59641695	0.812145
Mn	0.1492733	0.59773085	0.9378226
Mn	0.1476687	0.69723775	0.0621138
Mn	0.14792145	0.69931245	0.18697745
Mn	0.1513154	0.7020732	0.3142684
Mn	0.15053375	0.69916865	0.44341825
Mn	0.14846825	0.6971833	0.5676481
Mn	0.1462632	0.6948056	0.6909221
Mn	0.148767	0.6981268	0.81181365
Mn	0.150068	0.70037515	0.93674875
Mn	0.15076035	0.80437665	0.06196275
Mn	0.1514839	0.8077651	0.18521625
Mn	0.1531425	0.8006304	0.3160332
Mn	0.1530832	0.8019056	0.43844605
Mn	0.15234655	0.800942	0.56529985
Mn	0.1479501	0.799996	0.68776565
Mn	0.14982225	0.80228165	0.81251705
Mn	0.1524564	0.80427175	0.9362292
Mn	0.15268035	0.9033364	0.0623717
Mn	0.15009965	0.9002377	0.18689
Mn	0.15253155	0.9000095	0.31362455
Mn	0.15263165	0.89909945	0.4384247
Mn	0.15517475	0.90418905	0.5616292
Mn	0.1512615	0.9012835	0.6895569
Mn	0.1491196	0.90095975	0.81264295
Mn	0.15129285	0.9022436	0.93566235
Mn	0.2500283	0.9988412	0.06351765
Mn	0.2519217	0.9985668	0.1866649
Mn	0.2506205	9.255E-05	0.31224695
Mn	0.250444	0.99839075	0.438021
Mn	0.2515207	0.99662375	0.56274185
Mn	0.25054605	0.00047615	0.6875776
Mn	0.24952785	0.00035935	0.8109502
Mn	0.2498031	0.99822725	0.93750575
Mn	0.24978815	0.0977607	0.0617677
Mn	0.25069185	0.09827225	0.18891285
Mn	0.2513023	0.09847795	0.3127378
Mn	0.2508504	0.09543225	0.4391321
Mn	0.24975295	0.09743755	0.56213665
Mn	0.249565	0.0986496	0.6875525
Mn	0.2497439	0.09584375	0.8104537
Mn	0.2482607	0.09625785	0.93721885
Mn	0.24547295	0.1957263	0.06277675
Mn	0.24894275	0.1974824	0.18979325
Mn	0.25156775	0.1982282	0.31420625
Mn	0.25210015	0.1963166	0.4411071
Mn	0.2507623	0.20082875	0.5639177
Mn	0.24935145	0.1978227	0.6890606
Mn	0.24626945	0.20062385	0.8103941
Mn	0.24895605	0.1999294	0.94049885
Mn	0.24888555	0.30158225	0.0615632
Mn	0.24924105	0.29856115	0.193205
Mn	0.25151435	0.30207815	0.31630265
Mn	0.25329135	0.30318225	0.4348219
Mn	0.2498409	0.30561545	0.5631844
Mn	0.25031595	0.30195885	0.68650805
Mn	0.24879965	0.29981005	0.8120938
Mn	0.24681485	0.3044145	0.9387894
Mn	0.2494842	0.4014686	0.0605255
Mn	0.2495822	0.40185385	0.1892895
Mn	0.2490663	0.4013228	0.31447785
Mn	0.25047755	0.39950775	0.4405986
Mn	0.25190655	0.4034276	0.5618957
Mn	0.24883675	0.3998963	0.6887365
Mn	0.2502421	0.4026774	0.8097625
Mn	0.24771965	0.40045095	0.9369295
Mn	0.2490361	0.4997665	0.0605746
Mn	0.25113835	0.4997054	0.1879444
Mn	0.2499459	0.49892335	0.3126544
Mn	0.2506755	0.49870185	0.43731905
Mn	0.24995195	0.49840195	0.56106485
Mn	0.2483339	0.49974945	0.686591
Mn	0.24841915	0.50028145	0.81220805
Mn	0.2484108	0.4967468	0.9358752
Mn	0.2497585	0.5970275	0.0616955
Mn	0.24865255	0.59526725	0.18820685
Mn	0.25073775	0.59509935	0.31415295
Mn	0.24853955	0.59722515	0.4377395
Mn	0.24877545	0.5972679	0.5628448
Mn	0.24874735	0.59834415	0.6876738
Mn	0.24744025	0.59718915	0.81279455
Mn	0.24818395	0.59847295	0.93787765
Mn	0.2495504	0.69664475	0.0645246
Mn	0.2554708	0.70526485	0.1873437
Mn	0.25139945	0.7020888	0.3116016
Mn	0.25213135	0.7014718	0.4372018
Mn	0.2509575	0.6988088	0.5605107
Mn	0.2498356	0.6999259	0.6859024
Mn	0.24892385	0.70014425	0.81122535
Mn	0.2493382	0.6976595	0.9357511
Mn	0.25083445	0.8004634	0.0625657
Mn	0.2524399	0.8059698	0.1849275
Mn	0.2514652	0.79958975	0.3154887
Mn	0.25075965	0.80122735	0.4389866
Mn	0.2490054	0.8026394	0.56519865
Mn	0.25069565	0.7996477	0.687027
Mn	0.2512001	0.8026942	0.81211605
Mn	0.24996845	0.8014942	0.9363443
Mn	0.24972145	0.8998626	0.06113735
Mn	0.250761	0.9002503	0.188794
Mn	0.2542589	0.9010416	0.31258295
Mn	0.24951995	0.9011078	0.43965965
Mn	0.2507613	0.90155665	0.5618473
Mn	0.2498105	0.90361585	0.6875924
Mn	0.25096425	0.90125285	0.81203695
Mn	0.25058065	0.9033893	0.93582025
Mn	0.3507128	0.99923545	0.0616519
Mn	0.35127245	0.9996229	0.1889182
Mn	0.35191345	0.99834755	0.31254915
Mn	0.34919515	0.99932725	0.43768545
Mn	0.35141705	0.99929965	0.5610778
Mn	0.3495715	0.99988385	0.68681705
Mn	0.3501728	0.99921905	0.8121562
Mn	0.350341	0.99994455	0.9394752
Mn	0.3511144	0.09474805	0.0671644
Mn	0.34954265	0.09560325	0.18895745
Mn	0.35067105	0.09770995	0.3124018
Mn	0.351518	0.0959153	0.43703505
Mn	0.3492877	0.10002255	0.5627166
Mn	0.34904445	0.0965046	0.6874637
Mn	0.34890685	0.0968358	0.8105319
Mn	0.34750965	0.09359135	0.93861555
Mn	0.35042595	0.19633655	0.06333645
Mn	0.3512853	0.19554165	0.18972195
Mn	0.3522947	0.1983697	0.3148696
Mn	0.3509801	0.19660525	0.440235
Mn	0.3486266	0.19603365	0.56119275
Mn	0.3491385	0.1984823	0.68817235
Mn	0.3511862	0.20005155	0.81476505
Mn	0.34883285	0.2024917	0.9398669
Mn	0.35035845	0.30078005	0.06334775
Mn	0.3522283	0.3036	0.188552
Mn	0.3509281	0.2974502	0.31555535
Mn	0.355965	0.3045332	0.43576815
Mn	0.350033	0.30490455	0.55864595
Mn	0.35085745	0.30131025	0.68730815
Mn	0.35036385	0.30111485	0.81156075
Mn	0.347907	0.3022549	0.9389804
Mn	0.3506247	0.40225375	0.06264
Mn	0.3490949	0.40136475	0.1870005
Mn	0.3499892	0.4020817	0.31395595
Mn	0.34992945	0.39879425	0.43813345
Mn	0.35040555	0.40158425	0.5645998
Mn	0.35131485	0.4011434	0.6874823
Mn	0.35077545	0.402205	0.81056285
Mn	0.34825415	0.40103465	0.9351499
Mn	0.34976185	0.4985876	0.0613942
Mn	0.3508934	0.5013859	0.1875611
Mn	0.35280905	0.50037685	0.31384615
Mn	0.35340355	0.5004966	0.43924235
Mn	0.34873455	0.49787485	0.5629125
Mn	0.34839965	0.49968365	0.6872321
Mn	0.34918035	0.49982605	0.81195235
Mn	0.3492932	0.49798385	0.93659915
Mn	0.3516895	0.5984415	0.06411525
Mn	0.35238935	0.5986794	0.18775685
Mn	0.35170715	0.5981511	0.31388105
Mn	0.3490456	0.59763105	0.4377003
Mn	0.34902935	0.59585205	0.56235845
Mn	0.34808055	0.59701885	0.68810715
Mn	0.3481259	0.59679435	0.8135728
Mn	0.34918065	0.59687	0.9367945
Mn	0.35028	0.69962135	0.06632165
Mn	0.3517999	0.6982557	0.18908305
Mn	0.3523911	0.7024291	0.31291635
Mn	0.34957145	0.69445915	0.43679645
Mn	0.34954515	0.6992838	0.56248715
Mn	0.34902	0.7063574	0.68424295
Mn	0.3467861	0.70107195	0.81133395
Mn	0.3488087	0.699817	0.9324861
Mn	0.35153275	0.80547955	0.06228165
Mn	0.3512528	0.80196845	0.1865782
Mn	0.35094755	0.8027344	0.312597
Mn	0.34936765	0.8071353	0.43733655
Mn	0.3519497	0.8029687	0.5606706
Mn	0.35024275	0.8041973	0.68618005
Mn	0.34922955	0.80697355	0.81328905
Mn	0.3494214	0.80391905	0.9365337
Mn	0.34934445	0.90020965	0.062492
Mn	0.3510752	0.90326725	0.1877432
Mn	0.3506255	0.9031632	0.30997765
Mn	0.35004945	0.90239445	0.4380716
Mn	0.3498311	0.90253985	0.5624681
Mn	0.3510171	0.90167695	0.6873633
Mn	0.35070645	0.90083455	0.81312265
Mn	0.3540101	0.9031112	0.9370494
Mn	0.4487547	0.9997387	0.0626215
Mn	0.45069095	0.99864755	0.18852565
Mn	0.4500261	0.99944905	0.3123478
Mn	0.4507243	0.99830675	0.43719075
Mn	0.44866655	0.999233	0.55973715
Mn	0.4492361	0.9993759	0.68599025
Mn	0.4475047	0.99772065	0.81378775
Mn	0.45090085	0.99974645	0.93681325
Mn	0.4513664	0.09809955	0.061432
Mn	0.45003025	0.09538925	0.19000975
Mn	0.4508412	0.09725325	0.3156562
Mn	0.44945775	0.09718475	0.4382589
Mn	0.4479171	0.0959118	0.5614146
Mn	0.44998705	0.0975382	0.6855669
Mn	0.4482935	0.0945281	0.81024255
Mn	0.45018155	0.0951141	0.9349874
Mn	0.45119155	0.1982902	0.0633164
Mn	0.4487783	0.1959049	0.1891584
Mn	0.451933	0.1965302	0.3144629
Mn	0.4498582	0.19574025	0.4376935
Mn	0.4501586	0.20096715	0.56408325
Mn	0.44860325	0.19825435	0.68842185
Mn	0.4488786	0.20006765	0.81086475
Mn	0.44910915	0.19804965	0.9362969
Mn	0.45535215	0.30367575	0.06230935
Mn	0.4538966	0.3031172	0.19023005
Mn	0.4508991	0.30380895	0.310458
Mn	0.45163695	0.29556395	0.4417464
Mn	0.45119765	0.3035834	0.561168
Mn	0.4518694	0.3038623	0.68889905
Mn	0.45203175	0.3039888	0.80978005
Mn	0.4551828	0.3032681	0.93828245
Mn	0.451108	0.40248685	0.0611579
Mn	0.4512089	0.40206255	0.18822895
Mn	0.44984175	0.40199385	0.3118414
Mn	0.45027165	0.40092375	0.43597255
Mn	0.4499735	0.40119195	0.5627029
Mn	0.45009995	0.4002511	0.6879083
Mn	0.45012625	0.4004848	0.81214705
Mn	0.45228955	0.4022622	0.9361861
Mn	0.45000275	0.50071355	0.06192935
Mn	0.44981365	0.49787085	0.18777525
Mn	0.44964965	0.4993842	0.3141258
Mn	0.44934865	0.5009024	0.43663755
Mn	0.44909545	0.49874245	0.5631428
Mn	0.4505056	0.4995929	0.68755605
Mn	0.4484346	0.4985123	0.8137881
Mn	0.4505289	0.49850165	0.93655185
Mn	0.44970185	0.59739115	0.06455715
Mn	0.4514893	0.59841125	0.19103565
Mn	0.45152915	0.59994445	0.3131723
Mn	0.44884905	0.5994639	0.43932975
Mn	0.4499298	0.59832795	0.5625346
Mn	0.4500697	0.59597335	0.6881913
Mn	0.44800295	0.59851055	0.8142643
Mn	0.45190215	0.5963853	0.9389668
Mn	0.4514473	0.69851915	0.06457695
Mn	0.45240335	0.7001439	0.1888513
Mn	0.45027445	0.6976494	0.31400835
Mn	0.4497833	0.69629095	0.4412553
Mn	0.4483782	0.69913195	0.55983355
Mn	0.4481932	0.6993765	0.68462685
Mn	0.44938135	0.6997258	0.81152845
Mn	0.45013445	0.70009565	0.936549
Mn	0.4524953	0.8061956	0.0608897
Mn	0.4510268	0.8043585	0.1885237
Mn	0.4486219	0.80202325	0.3111417
Mn	0.4503215	0.8037566	0.4332721
Mn	0.4479006	0.80042465	0.56136965
Mn	0.45054995	0.80678915	0.68727075
Mn	0.4504579	0.80121995	0.81402085
Mn	0.4507505	0.8030377	0.93901555
Mn	0.45090845	0.9033193	0.06277545
Mn	0.4521578	0.8998525	0.1860263
Mn	0.45092235	0.90168625	0.31242825
Mn	0.4511214	0.9019807	0.4366918
Mn	0.44915385	0.90233145	0.56277275
Mn	0.4492938	0.9002166	0.68713535
Mn	0.4498541	0.9031161	0.81176645
Mn	0.45059715	0.90019875	0.9383416
Mn	0.5498676	1.82E-05	0.06364955
Mn	0.5503713	0.9994918	0.1872657
Mn	0.5497743	0.9983086	0.3125636
Mn	0.5479955	0.99886755	0.4357346
Mn	0.5485613	0.9983737	0.56263455
Mn	0.55029155	0.99884535	0.685541
Mn	0.54934425	0.9981749	0.8129674
Mn	0.54926675	0.9981085	0.9380776
Mn	0.5509609	0.0977294	0.0639858
Mn	0.55023635	0.09791005	0.18900265
Mn	0.5508332	0.09989855	0.3126397
Mn	0.5478035	0.096491	0.44012885
Mn	0.5488518	0.09792775	0.5614816
Mn	0.5493035	0.0974597	0.68626935
Mn	0.55032655	0.0958082	0.81197575
Mn	0.54621845	0.0960175	0.9420888
Mn	0.5532454	0.19684505	0.063436
Mn	0.55084445	0.1962444	0.19028055
Mn	0.5495328	0.1980482	0.3125366
Mn	0.5496389	0.19971705	0.436309
Mn	0.54851065	0.19969525	0.55892995
Mn	0.5491944	0.20016505	0.6886439
Mn	0.5518367	0.1983534	0.81423145
Mn	0.5557026	0.20593615	0.9381088
Mn	0.5545658	0.30294955	0.0631007
Mn	0.5519529	0.29912455	0.18893115
Mn	0.5516263	0.3003891	0.31284325
Mn	0.55024815	0.30022775	0.4363218
Mn	0.5498549	0.29936725	0.56323205
Mn	0.553516	0.3050235	0.68369405
Mn	0.55083935	0.30167165	0.8123386
Mn	0.55379985	0.3041547	0.9370852
Mn	0.5512435	0.40184425	0.0632555
Mn	0.550893	0.4011313	0.18764235
Mn	0.55179515	0.4040269	0.31437325
Mn	0.5499436	0.4024334	0.43680995
Mn	0.54950485	0.4004908	0.5623102
Mn	0.5512178	0.40068305	0.68849045
Mn	0.5495261	0.40132945	0.8118565
Mn	0.55025545	0.40076095	0.93731065
Mn	0.55043445	0.49995465	0.06018405
Mn	0.5511283	0.5007858	0.1882402
Mn	0.5499137	0.49952135	0.31289205
Mn	0.55006065	0.49808135	0.4387974
Mn	0.550777	0.4987852	0.5618219
Mn	0.54998605	0.4990139	0.68909715
Mn	0.551576	0.4993736	0.8127731
Mn	0.5510593	0.49802295	0.9371599
Mn	0.55123035	0.5967271	0.0627154
Mn	0.5509194	0.59831395	0.18948495
Mn	0.55173615	0.6010295	0.3113661
Mn	0.54948845	0.5956666	0.44070355
Mn	0.55011285	0.5978095	0.5610097
Mn	0.5510735	0.59513485	0.6890394
Mn	0.54958095	0.5981847	0.8145631
Mn	0.5505786	0.59981365	0.9364608
Mn	0.5491175	0.70303505	0.06765895
Mn	0.5491254	0.70126635	0.18622425
Mn	0.54994495	0.6984302	0.3131107
Mn	0.55083305	0.7012605	0.43407875
Mn	0.5479487	0.69905415	0.56211935
Mn	0.54602625	0.7002135	0.67945025
Mn	0.5519933	0.6977159	0.8136572
Mn	0.55118885	0.6971766	0.93793755
Mn	0.54929605	0.800749	0.063921
Mn	0.55127905	0.80611025	0.1858128
Mn	0.54935605	0.8020849	0.31147805
Mn	0.5492706	0.801158	0.4362628
Mn	0.5483222	0.801765	0.55810465
Mn	0.54772755	0.8029571	0.68658075
Mn	0.55144625	0.80205775	0.81276195
Mn	0.54972305	0.8011011	0.9381391
Mn	0.55019325	0.90156405	0.06231715
Mn	0.55152345	0.90117805	0.18695085
Mn	0.5492478	0.90170645	0.31191415
Mn	0.5500688	0.90033815	0.4354751
Mn	0.5493846	0.901194	0.56313975
Mn	0.55008685	0.90184295	0.68830155
Mn	0.5491211	0.8996672	0.81234615
Mn	0.5503886	0.9016453	0.93682655
Mn	0.64970135	0.99937145	0.0626566
Mn	0.6489351	0.99861315	0.186309
Mn	0.64765735	0.0012464	0.31076545
Mn	0.64841885	0.00049005	0.437146
Mn	0.64877675	0.99982845	0.5613694
Mn	0.6485286	0.99809935	0.68717065
Mn	0.64872895	0.99853145	0.8136816
Mn	0.64993485	0.99929205	0.9370303
Mn	0.65074395	0.09738965	0.06136055
Mn	0.6505815	0.09975705	0.18650765
Mn	0.64851735	0.0955702	0.3129785
Mn	0.6497903	0.0983146	0.43896025
Mn	0.64724395	0.09748335	0.5612113
Mn	0.64848675	0.09867345	0.6873483
Mn	0.65071045	0.09999625	0.81245185
Mn	0.65164955	0.0984207	0.93789405
Mn	0.6529452	0.1985551	0.06138635
Mn	0.6514181	0.19817055	0.1892152
Mn	0.64742845	0.1963007	0.31208525
Mn	0.6501628	0.2000735	0.43857155
Mn	0.6481378	0.19880135	0.5632558
Mn	0.652915	0.20235545	0.68708515
Mn	0.6514018	0.1995168	0.81351075
Mn	0.6523767	0.1982184	0.93939455
Mn	0.65621405	0.3129751	0.0576817
Mn	0.6513055	0.29847465	0.18958515
Mn	0.6499023	0.30019185	0.3119884
Mn	0.65171315	0.3015367	0.4369828
Mn	0.64951195	0.29821935	0.56211615
Mn	0.6510504	0.30343105	0.68820035
Mn	0.6506016	0.30118675	0.8123336
Mn	0.6515284	0.3031948	0.9375145
Mn	0.65155065	0.40201155	0.06195165
Mn	0.65064345	0.4004536	0.1876595
Mn	0.64837365	0.40190765	0.3125992
Mn	0.6477502	0.4023296	0.4375944
Mn	0.6494218	0.40078535	0.5619071
Mn	0.652139	0.40166625	0.68733275
Mn	0.65330005	0.39987395	0.8130492
Mn	0.6507484	0.4012963	0.9364964
Mn	0.6516201	0.5004298	0.06124205
Mn	0.6502969	0.4986263	0.1888194
Mn	0.65081325	0.4998475	0.3124413
Mn	0.6502504	0.5024145	0.4367426
Mn	0.64886045	0.49731	0.5633621
Mn	0.65130525	0.4994474	0.6876981
Mn	0.6485618	0.4985817	0.81386075
Mn	0.6516337	0.49931585	0.9366107
Mn	0.65041455	0.6002668	0.0630155
Mn	0.65012545	0.60028285	0.18667995
Mn	0.64890295	0.59762495	0.31328
Mn	0.6483222	0.5969228	0.4373155
Mn	0.6510801	0.5956298	0.56307625
Mn	0.6510952	0.6000086	0.68920775
Mn	0.6507594	0.59912065	0.81350975
Mn	0.6515473	0.5958827	0.9395275
Mn	0.6520292	0.69915095	0.06501685
Mn	0.64998235	0.7001574	0.1893807
Mn	0.65171005	0.69832015	0.3148672
Mn	0.64492705	0.70156935	0.43733925
Mn	0.64705635	0.69403935	0.56523595
Mn	0.65218615	0.7002004	0.68906525
Mn	0.6517641	0.6980921	0.81411535
Mn	0.6513972	0.6985311	0.93830045
Mn	0.64996675	0.8001713	0.06531675
Mn	0.64880225	0.8017233	0.18640445
Mn	0.64858865	0.80121045	0.31045565
Mn	0.6486636	0.80245885	0.43592515
Mn	0.64762675	0.80294695	0.5587878
Mn	0.6494055	0.7996562	0.6877496
Mn	0.65201415	0.79761885	0.8135493
Mn	0.65223875	0.80126635	0.9371181
Mn	0.64766405	0.89901095	0.06339865
Mn	0.6494066	0.90089575	0.1878594
Mn	0.64862755	0.8988996	0.31092135
Mn	0.64862875	0.8998897	0.43853195
Mn	0.6464873	0.9020566	0.5596734
Mn	0.6489015	0.90232815	0.686577
Mn	0.6495031	0.9036096	0.81333655
Mn	0.64928985	0.90050105	0.9385562
Mn	0.7483801	0.9995914	0.0610423
Mn	0.7484987	0.9998903	0.1862129
Mn	0.74569795	0.999122	0.31030085
Mn	0.7497588	0.9995701	0.43613995
Mn	0.74837955	0.99840845	0.5616978
Mn	0.74967815	0.00051675	0.68720955
Mn	0.750273	0.00133965	0.8126996
Mn	0.7492961	0.99957485	0.937633
Mn	0.75189605	0.09946205	0.06085535
Mn	0.7499792	0.1001157	0.19023975
Mn	0.74792965	0.1001941	0.31217065
Mn	0.7501567	0.0993672	0.43702725
Mn	0.7487655	0.09922275	0.5640937
Mn	0.75277065	0.0972792	0.68863905
Mn	0.7518774	0.1005965	0.81288325
Mn	0.7491227	0.0993452	0.9373535
Mn	0.75124545	0.19907665	0.06375545
Mn	0.7515123	0.20128145	0.18794465
Mn	0.74993365	0.19814285	0.3120583
Mn	0.7483622	0.1980909	0.4373251
Mn	0.7487717	0.20007705	0.5619865
Mn	0.75031585	0.20153805	0.6881642
Mn	0.7516926	0.2036117	0.8133426
Mn	0.7511945	0.2010744	0.9374996
Mn	0.750934	0.30247245	0.06198995
Mn	0.751417	0.30097985	0.1882531
Mn	0.75123125	0.29992345	0.3127543
Mn	0.7498087	0.29971825	0.4374489
Mn	0.75000225	0.3006391	0.56115785
Mn	0.7514233	0.3004034	0.6886616
Mn	0.7511305	0.30051595	0.81117255
Mn	0.75119985	0.30053955	0.935617
Mn	0.75208505	0.4027243	0.0607875
Mn	0.7483788	0.39798985	0.1897337
Mn	0.7493624	0.40108575	0.3110155
Mn	0.74984555	0.39910305	0.43795415
Mn	0.74956045	0.40062115	0.5628354
Mn	0.7506166	0.400913	0.68817385
Mn	0.75159105	0.40069485	0.8121623
Mn	0.75157025	0.40146405	0.9369856
Mn	0.74961855	0.49863755	0.0613779
Mn	0.7487679	0.5003894	0.18599935
Mn	0.74995585	0.49980455	0.31062645
Mn	0.7495686	0.4970335	0.43716385
Mn	0.75167745	0.49843065	0.56360075
Mn	0.7493947	0.5003135	0.68992765
Mn	0.75074985	0.5006998	0.81332155
Mn	0.75156125	0.50042955	0.9366453
Mn	0.75133525	0.5977932	0.0622547
Mn	0.74868715	0.598683	0.18416655
Mn	0.74974205	0.60051175	0.3126931
Mn	0.7480103	0.5955006	0.4368906
Mn	0.75062255	0.598405	0.5627096
Mn	0.75431115	0.598079	0.68827705
Mn	0.7509384	0.59763065	0.81429035
Mn	0.74881715	0.5999259	0.9381506
Mn	0.74977345	0.6975427	0.06323575
Mn	0.7495333	0.69901285	0.18816445
Mn	0.7505753	0.69911695	0.3104333
Mn	0.74952035	0.69536105	0.4381751
Mn	0.74777295	0.6979746	0.5663158
Mn	0.7525375	0.7020943	0.68926515
Mn	0.75120795	0.7000105	0.81391045
Mn	0.75038535	0.69907015	0.9377336
Mn	0.75057285	0.8009111	0.0627349
Mn	0.7488941	0.79969805	0.18464605
Mn	0.7486468	0.8016998	0.30998375
Mn	0.748842	0.7998045	0.4353847
Mn	0.7514421	0.7972633	0.5643518
Mn	0.7517741	0.80135415	0.6875884
Mn	0.7494273	0.8005483	0.8138649
Mn	0.75096655	0.7985444	0.9387367
Mn	0.74917355	0.9005511	0.059822
Mn	0.74722415	0.90221335	0.1864596
Mn	0.74893325	0.901381	0.31125745
Mn	0.74501945	0.9004554	0.4348112
Mn	0.75023345	0.90120385	0.5620336
Mn	0.7512635	0.89807215	0.69174605
Mn	0.7481724	0.9008349	0.81358555
Mn	0.75146335	0.90032835	0.9368963
Mn	0.84829755	9.345E-05	0.06279595
Mn	0.8474135	0.99832305	0.18391505
Mn	0.8476317	0.99801245	0.3103605
Mn	0.85029815	0.99900345	0.4371132
Mn	0.850917	0.00100815	0.56243525
Mn	0.85053795	0.0001156	0.68847785
Mn	0.85044075	0.00194435	0.81304725
Mn	0.85172355	0.0015722	0.9378857
Mn	0.8479097	0.09901835	0.0615288
Mn	0.8477419	0.0984762	0.18580205
Mn	0.8479897	0.09910425	0.3084837
Mn	0.8488088	0.100072	0.4381869
Mn	0.85328645	0.1026102	0.56815135
Mn	0.85076935	0.0995316	0.6901391
Mn	0.8516478	0.09870775	0.8140903
Mn	0.84944605	0.10047475	0.9364129
Mn	0.849936	0.1981329	0.0617091
Mn	0.8490061	0.19710705	0.18556335
Mn	0.84717305	0.199854	0.31527885
Mn	0.8498092	0.19908145	0.43884795
Mn	0.85026365	0.20058735	0.56198895
Mn	0.85107065	0.2008516	0.68769365
Mn	0.8510146	0.20190885	0.81322035
Mn	0.85140875	0.2004926	0.9383718
Mn	0.84989955	0.2993583	0.06316805
Mn	0.8501369	0.29755165	0.18586395
Mn	0.85028205	0.3024789	0.3110965
Mn	0.8510798	0.30046055	0.4395344
Mn	0.8476644	0.2995589	0.5628624
Mn	0.85080725	0.30135465	0.68890655
Mn	0.85058475	0.3016	0.81428225
Mn	0.85075265	0.29934725	0.9361043
Mn	0.85128195	0.4028382	0.06195055
Mn	0.85033685	0.40060515	0.18745935
Mn	0.8513644	0.4002594	0.3131333
Mn	0.85030345	0.40237495	0.43532795
Mn	0.85112655	0.39966015	0.562426
Mn	0.85204345	0.397757	0.686229
Mn	0.85107155	0.3996993	0.8129877
Mn	0.8501664	0.40008115	0.93523215
Mn	0.8507779	0.49883575	0.061642
Mn	0.8491838	0.49995085	0.1862503
Mn	0.8505077	0.4992834	0.3123657
Mn	0.84916005	0.4990894	0.4382314
Mn	0.8501074	0.4996294	0.5619439
Mn	0.85116645	0.498788	0.68948455
Mn	0.8499135	0.4978832	0.8147822
Mn	0.8509109	0.4985371	0.9357159
Mn	0.84862225	0.6000716	0.0632292
Mn	0.8493308	0.59901705	0.18635635
Mn	0.8493075	0.59808835	0.31120315
Mn	0.8487925	0.5975403	0.43768195
Mn	0.85085335	0.59855465	0.56228895
Mn	0.8514631	0.59904155	0.69151715
Mn	0.85047295	0.5984505	0.8130879
Mn	0.85013205	0.5987316	0.9376865
Mn	0.84699385	0.7005943	0.06244855
Mn	0.849015	0.70177945	0.1871082
Mn	0.8511485	0.6994326	0.3111405
Mn	0.85129565	0.69763735	0.43792225
Mn	0.8506486	0.6988577	0.5665232
Mn	0.8520463	0.69862475	0.68927785
Mn	0.8514622	0.70056895	0.81419925
Mn	0.8504115	0.69848275	0.93891725
Mn	0.84965335	0.8002072	0.06165325
Mn	0.84944755	0.7996943	0.18797945
Mn	0.84841215	0.8017466	0.30907875
Mn	0.8506118	0.7982981	0.4403983
Mn	0.850748	0.80222725	0.5626403
Mn	0.8513347	0.7989349	0.68875955
Mn	0.85227945	0.80019415	0.81548235
Mn	0.84928305	0.79757695	0.93665105
Mn	0.849456	0.8999231	0.05971485
Mn	0.84362575	0.89825795	0.18305915
Mn	0.84662765	0.90017185	0.3095831
Mn	0.8503897	0.90129945	0.4361286
Mn	0.84912025	0.90191135	0.56104505
Mn	0.850899	0.89979275	0.6878708
Mn	0.85126365	0.90119615	0.8138223
Mn	0.84888275	0.8987504	0.93788905
Mn	0.950729	0.9993775	0.06250185
Mn	0.94822215	0.0011003	0.1843641
Mn	0.9489766	0.9994884	0.31121675
Mn	0.95008095	0.00058595	0.43670355
Mn	0.9492357	0.9986134	0.5622346
Mn	0.9533781	0.00073875	0.6884244
Mn	0.9550973	0.0008703	0.81232725
Mn	0.950629	0.000478	0.9377742
Mn	0.9479698	0.0985078	0.0611142
Mn	0.94830205	0.09772655	0.18626205
Mn	0.94904935	0.0995812	0.3139853
Mn	0.94938895	0.0986212	0.4368856
Mn	0.9525635	0.1001153	0.5668009
Mn	0.95177575	0.0978172	0.6892111
Mn	0.94958955	0.098594	0.81318145
Mn	0.9484174	0.09967505	0.9371405
Mn	0.947393	0.2016584	0.05919875
Mn	0.94980435	0.1977618	0.1864408
Mn	0.9473461	0.1959486	0.31207675
Mn	0.9501642	0.1988339	0.4388855
Mn	0.94902505	0.1988316	0.5648698
Mn	0.9493967	0.20034785	0.6904007
Mn	0.951457	0.20045465	0.81493975
Mn	0.9487191	0.2006507	0.93709735
Mn	0.9502767	0.301372	0.0627058
Mn	0.9502637	0.29966625	0.18520825
Mn	0.9508222	0.30182565	0.31145205
Mn	0.95139075	0.3030257	0.4366473
Mn	0.94995535	0.3002197	0.56532225
Mn	0.95006265	0.30003695	0.68731445
Mn	0.9514318	0.3029441	0.81198775
Mn	0.95001135	0.3011545	0.9379627
Mn	0.9495534	0.40049835	0.0628553
Mn	0.9481323	0.40130115	0.18667195
Mn	0.95170055	0.40112735	0.31167015
Mn	0.94948325	0.3996467	0.43571655
Mn	0.95172445	0.3989538	0.5636696
Mn	0.94915105	0.39996345	0.6883631
Mn	0.9502071	0.4006059	0.81380655
Mn	0.9486203	0.40019005	0.93814935
Mn	0.95156745	0.50128365	0.06122475
Mn	0.9488959	0.49848655	0.187981
Mn	0.94902375	0.49901405	0.31132755
Mn	0.94897485	0.4982723	0.43908645
Mn	0.94921765	0.4998969	0.5617669
Mn	0.9518378	0.49930055	0.68845955
Mn	0.94850545	0.4997621	0.8125717
Mn	0.94929565	0.50104695	0.93637105
Mn	0.95090925	0.5993047	0.0604945
Mn	0.94950055	0.59949905	0.1876552
Mn	0.9475753	0.5976334	0.31109325
Mn	0.9486666	0.60009115	0.4387697
Mn	0.95015025	0.5994938	0.56406395
Mn	0.95232615	0.5999332	0.6887291
Mn	0.95153395	0.5977608	0.81341675
Mn	0.9503127	0.60116095	0.93916975
Mn	0.95079765	0.6987838	0.06346535
Mn	0.94849035	0.7001581	0.1848281
Mn	0.94786455	0.69775385	0.3130865
Mn	0.94977105	0.6952665	0.4391892
Mn	0.95205725	0.6983466	0.5642952
Mn	0.94994185	0.6971422	0.6888645
Mn	0.95062265	0.69850415	0.8140264
Mn	0.95047835	0.6999251	0.93781645
Mn	0.9490648	0.79996055	0.0609216
Mn	0.9492147	0.80091725	0.18776865
Mn	0.9518697	0.8014364	0.31411015
Mn	0.95008845	0.7993481	0.4378104
Mn	0.95217635	0.8002535	0.56214875
Mn	0.94993365	0.79950595	0.69557135
Mn	0.9514293	0.7986851	0.81412575
Mn	0.95158125	0.8000281	0.93698165
Mn	0.95093985	0.90181665	0.0622699
Mn	0.9495184	0.89965355	0.18561875
Mn	0.9521252	0.90331525	0.3120316
Mn	0.94847955	0.90109075	0.43433385
Mn	0.95519835	0.9042336	0.5626705
Mn	0.95163715	0.8998376	0.68916235
Mn	0.9515372	0.9002398	0.8127104
Mn	0.9492951	0.9008227	0.9375898
O	0.0072761	0.0505046	0.0311296
O	0.00670235	0.04902795	0.15690575
O	0.00692465	0.0476308	0.28000495
O	0.0077678	0.0515636	0.4064711
O	0.0059013	0.05209865	0.5314854
O	0.00496415	0.0495375	0.65687465
O	0.00850715	0.04968585	0.78070605
O	0.00498475	0.0493424	0.9054605
O	0.0044617	0.1493907	0.0317303
O	0.007727	0.1518685	0.1551744
O	0.00738705	0.1504734	0.28267375
O	0.00575045	0.14963935	0.40471435
O	0.00491425	0.15150615	0.5314886
O	0.00677005	0.1503851	0.6568775
O	0.0051347	0.14871245	0.7810014
O	0.00611785	0.1502082	0.90733615
O	0.0073737	0.2497886	0.0312528
O	0.00667705	0.2509517	0.15616835
O	0.0057576	0.2659673	0.28270745
O	0.0077656	0.25344525	0.40518625
O	0.00666685	0.24847925	0.53261795
O	0.00741035	0.2488556	0.65670025
O	0.00771915	0.24895715	0.7815261
O	0.00684365	0.248868	0.9062205
O	0.0070504	0.34934475	0.02982305
O	0.00955225	0.3500411	0.1563753
O	0.00602285	0.3516733	0.28288805
O	0.00879125	0.3498232	0.40682795
O	0.00848655	0.34942835	0.5323671
O	0.0071254	0.3506908	0.65566255
O	0.00644115	0.3494304	0.7808343
O	0.007539	0.34924525	0.90627975
O	0.00558305	0.45016635	0.0321331
O	0.0069326	0.44934675	0.1564476
O	0.00616975	0.45234535	0.2805271
O	0.00534755	0.4514025	0.4050127
O	0.00833875	0.45151045	0.5316406
O	0.00798025	0.44772855	0.6552355
O	0.00754055	0.4474372	0.780997
O	0.0052444	0.4482541	0.90436745
O	0.00655225	0.5510247	0.03230715
O	0.00681325	0.55060825	0.15635715
O	0.0090579	0.54942785	0.28143295
O	0.00822745	0.5517057	0.40804355
O	0.01070995	0.54991755	0.53051565
O	0.0064263	0.549513	0.6571842
O	0.00493455	0.5491647	0.78182945
O	0.00474225	0.5504431	0.90588565
O	0.0053692	0.64771745	0.0301534
O	0.00535775	0.6489642	0.1567276
O	0.00672085	0.6541869	0.2816319
O	0.0056211	0.65026845	0.40576795
O	0.0091662	0.6532693	0.53076125
O	0.0063721	0.65141805	0.6566828
O	0.0063724	0.6500228	0.78080065
O	0.0060993	0.6504752	0.90541765
O	0.0074847	0.7435901	0.0300534
O	0.0067685	0.7501828	0.1551673
O	0.00842575	0.7500289	0.2806862
O	0.00745805	0.7503833	0.40678765
O	0.0079031	0.74832945	0.53228225
O	0.0072276	0.7480021	0.6572307
O	0.0060119	0.7502307	0.78254555
O	0.00887775	0.75071	0.90583135
O	0.0082053	0.84806285	0.0286353
O	0.0039679	0.84977985	0.1552855
O	0.00898645	0.85348185	0.28113775
O	0.00555845	0.85446985	0.40570875
O	0.00729835	0.8501331	0.53121375
O	0.0089762	0.8502655	0.6561958
O	0.0072575	0.84951805	0.7824412
O	0.0064445	0.8501968	0.9079758
O	0.0053612	0.9527828	0.0305064
O	0.0067434	0.95232095	0.154816
O	0.0075419	0.949473	0.28049805
O	0.010474	0.9527862	0.40475835
O	0.00783945	0.9517336	0.53175685
O	0.0075706	0.9512679	0.6569907
O	0.00633075	0.9504537	0.78296755
O	0.00630735	0.95086105	0.9068324
O	0.10614555	0.0482881	0.0315392
O	0.10337195	0.0511067	0.1574594
O	0.1089114	0.04937655	0.2811912
O	0.1059666	0.04992455	0.40626995
O	0.1075328	0.05203195	0.53297355
O	0.1074997	0.0503367	0.6576155
O	0.1059707	0.05254905	0.7799
O	0.1062651	0.06792465	0.90842035
O	0.10678625	0.1500408	0.03266795
O	0.1072651	0.1474078	0.1554815
O	0.1077477	0.1533573	0.28044385
O	0.10744855	0.15200735	0.4058268
O	0.105768	0.15133905	0.5317453
O	0.1068622	0.1499429	0.6580418
O	0.10520765	0.1519045	0.78132125
O	0.10688805	0.15016235	0.90575005
O	0.10486015	0.24984735	0.03021415
O	0.1077898	0.2508593	0.15508975
O	0.10612545	0.2492846	0.2800214
O	0.1066626	0.25217035	0.40632485
O	0.10595655	0.24993975	0.5311239
O	0.10758845	0.24998875	0.65785445
O	0.1062338	0.24916935	0.78021185
O	0.10777225	0.24988075	0.90517845
O	0.10529505	0.3475156	0.03272225
O	0.10711695	0.3488254	0.15607325
O	0.10634315	0.3502855	0.28156115
O	0.10646165	0.3514971	0.40723755
O	0.10608245	0.35016205	0.5309365
O	0.1045916	0.35305875	0.6571966
O	0.10687045	0.34806165	0.77830465
O	0.1067115	0.3488433	0.9069119
O	0.10990405	0.44825145	0.0312002
O	0.1071711	0.4488769	0.1553463
O	0.10713865	0.44799755	0.2813953
O	0.10842825	0.4504717	0.4073736
O	0.10455735	0.44822345	0.5319094
O	0.10581835	0.4497769	0.65594735
O	0.1051093	0.44874505	0.7813579
O	0.10718165	0.4477314	0.90513865
O	0.1080046	0.54962805	0.02964275
O	0.10917245	0.55103985	0.1543731
O	0.10763325	0.5471449	0.28368305
O	0.1077901	0.54882215	0.407223
O	0.10711535	0.55256455	0.53146195
O	0.1064822	0.55006165	0.6562053
O	0.10634365	0.5470594	0.7822818
O	0.10740475	0.54617125	0.9063448
O	0.10851815	0.64954305	0.0283755
O	0.1073491	0.64991955	0.1566017
O	0.107367	0.6524231	0.27891
O	0.10905615	0.64777985	0.4037739
O	0.10667705	0.6483242	0.53385085
O	0.10667955	0.6511533	0.65760035
O	0.10701625	0.647728	0.78081225
O	0.1049396	0.6498151	0.9063623
O	0.10624945	0.7508597	0.0313558
O	0.1067176	0.75058955	0.1567869
O	0.10626325	0.7505243	0.28101565
O	0.10891335	0.7495898	0.4083385
O	0.10711605	0.74807675	0.53191975
O	0.1075484	0.7666697	0.6607751
O	0.10849555	0.7513376	0.7803541
O	0.1076953	0.752556	0.90831705
O	0.10801815	0.84868815	0.03025565
O	0.1069067	0.8490525	0.1560064
O	0.1089825	0.8493229	0.2804141
O	0.1056616	0.85243955	0.407716
O	0.10770915	0.84968975	0.53122445
O	0.10508565	0.8491148	0.65398575
O	0.10418525	0.84925675	0.78112365
O	0.10793045	0.85094625	0.90633395
O	0.1071833	0.9494428	0.0302751
O	0.10650145	0.9481759	0.15584425
O	0.1070345	0.95172725	0.28076275
O	0.10770225	0.9522077	0.40488005
O	0.10669495	0.95206215	0.53186295
O	0.10793275	0.946965	0.65685505
O	0.106432	0.9505345	0.7814252
O	0.1065651	0.94872705	0.90618425
O	0.2071092	0.0506642	0.03127275
O	0.20722985	0.0492457	0.1579986
O	0.2083572	0.04858055	0.2828281
O	0.2083639	0.05068505	0.4063909
O	0.20805665	0.04711725	0.5319496
O	0.2090187	0.05230355	0.6543546
O	0.20535685	0.0510926	0.78188635
O	0.20708705	0.0532994	0.9070128
O	0.20712675	0.1479835	0.03154145
O	0.2085981	0.1495424	0.155403
O	0.20620585	0.1509074	0.28095735
O	0.20750255	0.1504213	0.40765275
O	0.2063012	0.1506783	0.53267435
O	0.2076421	0.1500447	0.65666735
O	0.20550085	0.15087105	0.781169
O	0.20685525	0.14897275	0.90741655
O	0.2104146	0.2487516	0.031309
O	0.20528	0.24955615	0.15685675
O	0.20814925	0.2500359	0.2829318
O	0.2089586	0.25364455	0.40552665
O	0.2071497	0.2513175	0.5304273
O	0.2065024	0.2493239	0.65639925
O	0.20792525	0.25194495	0.7823887
O	0.20522005	0.25328145	0.9062612
O	0.2061761	0.35078725	0.0313701
O	0.2080562	0.3514188	0.1540895
O	0.2073106	0.3511209	0.28106865
O	0.2069931	0.3476207	0.4053264
O	0.2080859	0.35172325	0.5326865
O	0.20639955	0.34673635	0.65676465
O	0.20525345	0.35053465	0.7803864
O	0.20596085	0.3496858	0.907176
O	0.2073881	0.44771735	0.0311825
O	0.2070624	0.4492988	0.15746735
O	0.2062417	0.450757	0.28263365
O	0.2060289	0.449332	0.40665235
O	0.20632955	0.4481706	0.5321062
O	0.20938645	0.44729245	0.657101
O	0.20629545	0.45025365	0.78200095
O	0.20673985	0.45224185	0.9064528
O	0.20856335	0.54783845	0.0307794
O	0.2093551	0.54903995	0.1562468
O	0.20544625	0.54968615	0.28248305
O	0.20794855	0.55168075	0.40695765
O	0.20621865	0.5520589	0.52961265
O	0.2051648	0.55164605	0.6562904
O	0.20810325	0.5484557	0.78096135
O	0.20755625	0.5489808	0.9058115
O	0.20833015	0.64985385	0.03153495
O	0.2078953	0.6493846	0.15708095
O	0.20675065	0.64968435	0.2800053
O	0.2086859	0.65075865	0.40663715
O	0.20808345	0.65431145	0.53124605
O	0.2076789	0.65112705	0.65557755
O	0.21817925	0.63143365	0.77740895
O	0.2049216	0.65166725	0.9051608
O	0.2084298	0.74729635	0.0310216
O	0.20846255	0.74855515	0.1543052
O	0.2074354	0.7510621	0.28058355
O	0.20626285	0.7527726	0.4069385
O	0.20755445	0.7504419	0.53253335
O	0.2077627	0.74896865	0.6559953
O	0.20601815	0.7496376	0.781472
O	0.2063982	0.7658204	0.9052527
O	0.21089695	0.85124805	0.03066125
O	0.2063838	0.8510291	0.15654515
O	0.20553185	0.8502143	0.28086695
O	0.20441955	0.8521837	0.40731295
O	0.2078544	0.84943735	0.53158635
O	0.2064609	0.848201	0.6567212
O	0.20778055	0.84952965	0.7797486
O	0.20556935	0.8513779	0.90722295
O	0.2082562	0.95144785	0.03163955
O	0.2050289	0.9507524	0.1578089
O	0.20522855	0.9534844	0.28236375
O	0.20641065	0.9518094	0.40668305
O	0.20779325	0.94829115	0.5316943
O	0.20699925	0.9503695	0.6570227
O	0.2085177	0.9533469	0.7809036
O	0.2058965	0.9472745	0.9047112
O	0.30520235	0.04539	0.0324562
O	0.30655985	0.0508766	0.1561546
O	0.3089559	0.0507709	0.28168225
O	0.3076044	0.04794215	0.40609605
O	0.30962475	0.0531886	0.53054275
O	0.3060018	0.049572	0.65546445
O	0.3067091	0.0498242	0.78097085
O	0.30428895	0.0498858	0.90601755
O	0.3056927	0.15062845	0.0302925
O	0.306936	0.1480749	0.15541555
O	0.3082103	0.1495046	0.2823721
O	0.3043967	0.14832475	0.40564495
O	0.3075204	0.15000545	0.53087815
O	0.30584425	0.1517405	0.6565442
O	0.30774465	0.15085215	0.7823754
O	0.3078734	0.15156155	0.9063425
O	0.30564625	0.25431045	0.03163495
O	0.30686785	0.25362605	0.1573229
O	0.30536005	0.2518335	0.28074635
O	0.30762505	0.24799015	0.40513465
O	0.3068885	0.2493346	0.53149005
O	0.3093712	0.2501383	0.6563505
O	0.3067392	0.25056245	0.78118945
O	0.3060843	0.25192695	0.9066665
O	0.3071436	0.3487997	0.03091805
O	0.30404775	0.3501869	0.1547806
O	0.30816965	0.34909175	0.28290885
O	0.30705295	0.3497547	0.4063591
O	0.30736445	0.3642208	0.5336004
O	0.31027705	0.3505719	0.65712295
O	0.3054128	0.34923305	0.781579
O	0.3063408	0.346615	0.90622
O	0.3057276	0.45088245	0.03205515
O	0.30798455	0.44998675	0.1548573
O	0.3086133	0.4489098	0.28234805
O	0.30824005	0.4493286	0.40678725
O	0.3076363	0.4484468	0.5314387
O	0.30450085	0.4458346	0.6556418
O	0.30682295	0.4495558	0.78077655
O	0.30827515	0.45228875	0.9049997
O	0.30654105	0.54958435	0.0326748
O	0.30338355	0.5512079	0.15544955
O	0.30499115	0.5472782	0.281267
O	0.3077662	0.54938015	0.4068302
O	0.3068052	0.5502515	0.5321823
O	0.3059662	0.55214885	0.654292
O	0.30669745	0.5486449	0.7821681
O	0.30828285	0.55225	0.90723895
O	0.30922115	0.65032625	0.0313154
O	0.30488875	0.65064275	0.1572171
O	0.3080897	0.65170255	0.2815828
O	0.30767275	0.65135795	0.40635975
O	0.30503215	0.6499171	0.53067885
O	0.30491905	0.64909625	0.6559668
O	0.30609205	0.64891365	0.780398
O	0.3084752	0.6481847	0.9057045
O	0.3027296	0.75259315	0.030287
O	0.30517595	0.75229735	0.15536685
O	0.30803895	0.7533123	0.2805773
O	0.3082027	0.75297285	0.4062172
O	0.3072123	0.75052135	0.5307338
O	0.30689665	0.7496916	0.656102
O	0.30731485	0.7483353	0.78199485
O	0.30608435	0.7519071	0.9075356
O	0.30865445	0.8537207	0.03055095
O	0.3082924	0.8514904	0.15656255
O	0.3067265	0.85349895	0.28083385
O	0.30921555	0.8504677	0.4085613
O	0.30593425	0.85005635	0.53275845
O	0.3080846	0.8651781	0.6569233
O	0.30446395	0.85034835	0.7799573
O	0.3063304	0.85237155	0.90481125
O	0.30690335	0.9498227	0.03084575
O	0.3084406	0.94937575	0.1561315
O	0.3076715	0.94975765	0.28262185
O	0.3062882	0.9488534	0.40584325
O	0.3067279	0.9501049	0.53318995
O	0.3068619	0.95141885	0.65657575
O	0.3082741	0.9521183	0.782417
O	0.3066691	0.94870855	0.9051776
O	0.40632045	0.04879365	0.0319467
O	0.40614665	0.04927935	0.1581336
O	0.40805485	0.0494129	0.28065625
O	0.4057156	0.04993605	0.4052737
O	0.40701475	0.05009535	0.53128785
O	0.4084327	0.04852915	0.6560178
O	0.4078545	0.0505279	0.78004425
O	0.40646675	0.049255	0.90748115
O	0.4068974	0.1504061	0.0332819
O	0.40595665	0.15003625	0.1584954
O	0.4079972	0.14764695	0.28295925
O	0.405675	0.1490143	0.40669055
O	0.40661415	0.1511532	0.5322571
O	0.40783655	0.15029885	0.6556978
O	0.4093994	0.1510463	0.78015545
O	0.40521165	0.155422	0.91018725
O	0.4061857	0.2503642	0.03012875
O	0.4066253	0.2503109	0.15613065
O	0.4090692	0.24767505	0.28276025
O	0.40742205	0.24873395	0.40854845
O	0.4068713	0.2504187	0.5298403
O	0.4053121	0.269915	0.65839935
O	0.40647635	0.2530617	0.78158805
O	0.40700625	0.24949015	0.9054476
O	0.40643335	0.35066645	0.0321842
O	0.4055379	0.35401815	0.1551084
O	0.4087166	0.3498703	0.28046445
O	0.40735875	0.3502244	0.40664815
O	0.40514145	0.3524387	0.5330936
O	0.40882925	0.35122905	0.65580645
O	0.4079984	0.3546854	0.7807084
O	0.40658405	0.35553185	0.904401
O	0.4056722	0.44931755	0.0313576
O	0.40743965	0.44979495	0.15661915
O	0.4061916	0.4512795	0.2808617
O	0.4072705	0.4511145	0.40573165
O	0.4083281	0.44966385	0.53066695
O	0.4072626	0.45431995	0.6561262
O	0.4089284	0.4482572	0.7794274
O	0.40836875	0.45774455	0.9076818
O	0.4036121	0.5475178	0.0299934
O	0.40818975	0.5494503	0.15753875
O	0.4076196	0.5530056	0.28109515
O	0.40894935	0.55066715	0.40685905
O	0.40771195	0.54825735	0.53091265
O	0.40896455	0.5518393	0.65433765
O	0.40528245	0.54772965	0.7809946
O	0.40720055	0.5485903	0.90748525
O	0.40863065	0.6482837	0.03246265
O	0.4066756	0.6479885	0.15726875
O	0.4075464	0.64836285	0.2830464
O	0.40832745	0.6518769	0.40786775
O	0.4066105	0.64874755	0.53141355
O	0.40751045	0.65056595	0.65601855
O	0.41021675	0.64798135	0.78194855
O	0.40680685	0.65366	0.90646435
O	0.408218	0.7682053	0.0355101
O	0.4084528	0.76688905	0.15656995
O	0.4082996	0.75112195	0.28110965
O	0.40764715	0.74800045	0.40495125
O	0.404564	0.7515418	0.53148105
O	0.4053923	0.75294355	0.6564473
O	0.40734395	0.75077165	0.78101685
O	0.4069364	0.7504747	0.90617705
O	0.40610035	0.8504228	0.03111105
O	0.40676325	0.85196035	0.1569049
O	0.4044654	0.85247225	0.2804006
O	0.40627885	0.8510705	0.4062277
O	0.40555605	0.85055415	0.5310851
O	0.4066198	0.84993925	0.6572916
O	0.4075643	0.850396	0.7806105
O	0.4078234	0.8501765	0.90754865
O	0.4055834	0.9503275	0.0309194
O	0.4080044	0.9471555	0.1568358
O	0.4065914	0.94931585	0.2816514
O	0.4064815	0.94929095	0.40615315
O	0.40751515	0.94427415	0.53009635
O	0.40502255	0.94945835	0.6565026
O	0.40789685	0.9491944	0.78199485
O	0.4074261	0.94922915	0.90753765
O	0.50356705	0.04967785	0.03147905
O	0.50648455	0.05209065	0.1568241
O	0.5081385	0.04863585	0.28204965
O	0.50754655	0.0491696	0.40459785
O	0.50797735	0.04894455	0.53133155
O	0.50741075	0.04853195	0.65465155
O	0.50903185	0.04871485	0.78027605
O	0.50579465	0.0470976	0.9068956
O	0.50552685	0.1485971	0.0298051
O	0.50624725	0.1523563	0.1550705
O	0.503749	0.1500076	0.28212985
O	0.50820425	0.1491936	0.4066924
O	0.50559885	0.1509454	0.53222875
O	0.5075336	0.14770505	0.65822385
O	0.5082043	0.15067675	0.7783882
O	0.5077039	0.15121915	0.9049802
O	0.5066723	0.25252505	0.03157005
O	0.50656445	0.2490642	0.15726525
O	0.5050065	0.2507478	0.28041195
O	0.5093595	0.2515693	0.40469085
O	0.50860175	0.2505225	0.5303028
O	0.5071272	0.2518376	0.6550652
O	0.50801645	0.2519709	0.7804964
O	0.5074815	0.24891925	0.90705895
O	0.50790115	0.35305735	0.0311031
O	0.50718995	0.3500916	0.15569495
O	0.5060704	0.34814985	0.28204695
O	0.5069435	0.35214225	0.4075158
O	0.50759175	0.35018125	0.53152155
O	0.50550975	0.35083015	0.6566163
O	0.50713635	0.3513821	0.78168615
O	0.508893	0.3489532	0.9074701
O	0.50709135	0.4487083	0.0324602
O	0.5067655	0.44997175	0.15555935
O	0.5085606	0.44863595	0.28265435
O	0.505718	0.4511681	0.40509175
O	0.50603785	0.4544467	0.5323963
O	0.5068959	0.44970615	0.6554637
O	0.50846845	0.4494418	0.78185185
O	0.5050126	0.44903195	0.90773655
O	0.50821505	0.54765515	0.03167655
O	0.50764735	0.54991825	0.1557148
O	0.508084	0.54876525	0.282523
O	0.5080985	0.5479322	0.40749385
O	0.5057634	0.5529236	0.5312164
O	0.50459015	0.54970535	0.6560777
O	0.5093219	0.5488716	0.7810596
O	0.51025365	0.55029255	0.90777515
O	0.50665105	0.6502158	0.0313599
O	0.5061212	0.65243865	0.1562388
O	0.5101231	0.65026865	0.28068245
O	0.50636865	0.6501798	0.4072275
O	0.50694375	0.64836455	0.5306607
O	0.5047586	0.6476437	0.65760015
O	0.50879135	0.64837275	0.78015485
O	0.5078132	0.65017275	0.90641045
O	0.5056499	0.7503839	0.03122555
O	0.50804035	0.7517534	0.15685225
O	0.50820545	0.7504519	0.2823347
O	0.50743945	0.7509716	0.4065179
O	0.50679085	0.74837655	0.5319303
O	0.50578535	0.74967725	0.6544502
O	0.50625075	0.75106445	0.78096505
O	0.5056235	0.74939725	0.90517475
O	0.508724	0.849716	0.0324613
O	0.5072952	0.8489558	0.1570841
O	0.50623555	0.84946855	0.2811723
O	0.50527455	0.84977255	0.40533935
O	0.50647385	0.8495999	0.53029345
O	0.5081867	0.86514335	0.65367085
O	0.5066183	0.8512074	0.77919485
O	0.5070762	0.8502956	0.9055303
O	0.50486265	0.95029775	0.0305761
O	0.5067328	0.95006395	0.1556134
O	0.50692095	0.95129655	0.28040765
O	0.509819	0.949391	0.4056352
O	0.5040765	0.9484343	0.53104115
O	0.50637035	0.9496118	0.65718325
O	0.50805465	0.94958415	0.7796502
O	0.5068575	0.9497534	0.90605735
O	0.60773145	0.0492379	0.0302253
O	0.6065434	0.0485903	0.1571584
O	0.606881	0.0492837	0.28141055
O	0.6073373	0.04909455	0.40573045
O	0.607177	0.0489135	0.52943495
O	0.60803625	0.04812455	0.657261
O	0.6054539	0.04673965	0.7808403
O	0.60682555	0.04999235	0.9066692
O	0.60760795	0.1498365	0.0324953
O	0.60663805	0.14830825	0.1577371
O	0.60500545	0.14893915	0.2826275
O	0.6071425	0.15140525	0.40674255
O	0.60785585	0.15153995	0.5317707
O	0.60872245	0.149283	0.65650205
O	0.6064381	0.15036225	0.7820877
O	0.60591335	0.1496116	0.90671205
O	0.6073546	0.2529252	0.03004755
O	0.60522435	0.2545342	0.15822635
O	0.60750245	0.24947685	0.2821492
O	0.60696995	0.2519403	0.4065336
O	0.608923	0.26717545	0.5355626
O	0.60564205	0.2502146	0.65619975
O	0.60747085	0.25077445	0.7791308
O	0.6072143	0.25149135	0.9073551
O	0.60516055	0.3525312	0.02977495
O	0.6060007	0.35080005	0.1568412
O	0.6093117	0.35127565	0.282371
O	0.6078034	0.3543356	0.40744695
O	0.6070215	0.35190735	0.52932605
O	0.60824395	0.34946595	0.6568297
O	0.60473215	0.34904055	0.7814084
O	0.608309	0.3508186	0.9067143
O	0.6062787	0.44938725	0.03229875
O	0.6073745	0.45009	0.15725165
O	0.60441615	0.4528458	0.2823893
O	0.60729015	0.4495818	0.40684125
O	0.60578755	0.45009595	0.5307376
O	0.61066775	0.4519379	0.65652045
O	0.60529085	0.45205545	0.7823158
O	0.6074826	0.4524988	0.90603105
O	0.6071935	0.549568	0.03126605
O	0.60644525	0.5723263	0.15125655
O	0.60670135	0.54972465	0.28176935
O	0.60680515	0.54874475	0.40552195
O	0.60646765	0.5495023	0.53087915
O	0.60671975	0.5490608	0.6569903
O	0.6056217	0.54714595	0.7820976
O	0.60690695	0.5522126	0.90627525
O	0.6065565	0.65289975	0.0318157
O	0.60507415	0.64820495	0.15780335
O	0.6083291	0.6510518	0.28140685
O	0.608686	0.6486213	0.4060041
O	0.6059367	0.6513275	0.52957835
O	0.6059529	0.6529173	0.65530555
O	0.60854095	0.6476278	0.78079335
O	0.60856395	0.65234015	0.90438075
O	0.605175	0.7514677	0.03312445
O	0.6047895	0.7508805	0.15802785
O	0.6061732	0.7494301	0.28138015
O	0.6061405	0.75013725	0.40574015
O	0.60873415	0.74992835	0.52983505
O	0.60782675	0.7515517	0.65652345
O	0.6063328	0.74889135	0.78245565
O	0.60733625	0.7484943	0.90660915
O	0.60555735	0.8501288	0.0307911
O	0.6060607	0.85361205	0.1566454
O	0.6076276	0.85036785	0.28232275
O	0.60616015	0.8506208	0.4080671
O	0.6064386	0.84655985	0.5296301
O	0.60678555	0.85003625	0.65740515
O	0.60716845	0.85007035	0.78072705
O	0.60822555	0.851359	0.9049668
O	0.60793475	0.95216395	0.0303226
O	0.6066329	0.94960805	0.15793465
O	0.607308	0.95002075	0.28061495
O	0.6063147	0.94630705	0.4074426
O	0.6052209	0.9520053	0.53088935
O	0.6058888	0.9485442	0.65646615
O	0.60640735	0.9502344	0.78060205
O	0.60457095	0.9475632	0.9074636
O	0.7076377	0.04863185	0.0294162
O	0.70715035	0.04922255	0.1574272
O	0.70649025	0.04990555	0.2819229
O	0.7082215	0.0477068	0.4070342
O	0.70686555	0.0517824	0.5302187
O	0.70720505	0.0496843	0.6581017
O	0.7075719	0.05017625	0.78348925
O	0.70721385	0.04926805	0.9068002
O	0.70874515	0.14863515	0.0312167
O	0.70697995	0.14896715	0.1560304
O	0.70552115	0.14932605	0.2824939
O	0.70627095	0.14674555	0.4047745
O	0.70698765	0.1665524	0.523869
O	0.7060871	0.14762015	0.65705655
O	0.7066567	0.1494055	0.7812026
O	0.70785075	0.15314745	0.90558935
O	0.7084985	0.25008055	0.0309257
O	0.70668995	0.24793345	0.15704815
O	0.70547355	0.25158715	0.2814506
O	0.7062094	0.24736455	0.4076685
O	0.7101175	0.2495063	0.53243515
O	0.7105523	0.24868925	0.65640965
O	0.7061912	0.2480402	0.78164385
O	0.70751905	0.24706825	0.9062082
O	0.7072686	0.3479565	0.02908235
O	0.70740505	0.35102625	0.15618225
O	0.70644255	0.35086055	0.28021165
O	0.7068329	0.34893195	0.4056579
O	0.7059254	0.35069655	0.53164015
O	0.70790365	0.35095975	0.65791325
O	0.7082771	0.34807635	0.7800873
O	0.708928	0.348104	0.90769075
O	0.7063068	0.44844385	0.03089655
O	0.7071247	0.4479322	0.15601075
O	0.70754315	0.44943565	0.28284635
O	0.7078207	0.45099745	0.4057012
O	0.70853055	0.45127335	0.530609
O	0.70866605	0.45019525	0.65510735
O	0.7064673	0.45287245	0.78065085
O	0.7091484	0.45123375	0.90673965
O	0.7075089	0.5503701	0.0315977
O	0.7112763	0.5695562	0.15332655
O	0.70705355	0.54968405	0.2830677
O	0.7076875	0.54983405	0.4072104
O	0.70498335	0.5499298	0.5291229
O	0.70871235	0.55000305	0.65499675
O	0.7080602	0.5483333	0.78300715
O	0.7073057	0.55069755	0.90425695
O	0.70648945	0.6489215	0.03173855
O	0.70628955	0.6522499	0.1554919
O	0.70634045	0.64728185	0.281745
O	0.706426	0.64798635	0.4045881
O	0.70721085	0.649356	0.5314478
O	0.7064759	0.64722295	0.657675
O	0.70739585	0.649917	0.78202195
O	0.70708425	0.6503131	0.90631345
O	0.7084485	0.74955155	0.0309458
O	0.7064663	0.7489442	0.15722445
O	0.70764105	0.7490006	0.2811009
O	0.70741585	0.7509652	0.40688585
O	0.70707535	0.751779	0.5313728
O	0.70705385	0.7476883	0.65866025
O	0.70858575	0.7484278	0.78097735
O	0.70694565	0.7507078	0.90695535
O	0.7098704	0.84915055	0.03076805
O	0.70802385	0.848758	0.1568131
O	0.7061746	0.849286	0.28215545
O	0.7070653	0.8482065	0.40611125
O	0.7057231	0.8477045	0.5306519
O	0.7054846	0.85261405	0.6572759
O	0.70831295	0.852527	0.7814585
O	0.705953	0.8512701	0.90491535
O	0.70575665	0.9514356	0.0309725
O	0.70429885	0.95108745	0.15625595
O	0.70719315	0.94541885	0.280013
O	0.70585025	0.95028255	0.40623365
O	0.7062832	0.95155515	0.53101545
O	0.7045472	0.9507948	0.65705455
O	0.7071282	0.94937715	0.78112
O	0.70739845	0.95001525	0.90871915
O	0.80686675	0.04730735	0.0308739
O	0.804238	0.05017095	0.1570371
O	0.8055894	0.0496216	0.2819351
O	0.80714615	0.05018295	0.40477615
O	0.8065663	0.0504044	0.5311746
O	0.8038335	0.05446195	0.6564192
O	0.8050434	0.05136615	0.78186735
O	0.80737745	0.05043905	0.9066329
O	0.8080734	0.14979255	0.03134105
O	0.80693115	0.1475004	0.15636865
O	0.80660485	0.1490165	0.281369
O	0.80478765	0.1493601	0.4063265
O	0.8076161	0.1503928	0.5305283
O	0.80689145	0.1486253	0.65555735
O	0.8102706	0.1489899	0.78488485
O	0.8064464	0.14943595	0.90605095
O	0.807348	0.24916975	0.03069975
O	0.8068946	0.24856295	0.1553227
O	0.8079663	0.24980345	0.2828156
O	0.8066145	0.24993125	0.4060034
O	0.80602405	0.25040615	0.52981795
O	0.8049344	0.24991055	0.65630345
O	0.8074735	0.24953735	0.7832146
O	0.8066263	0.2512945	0.9039975
O	0.80685225	0.348923	0.03136025
O	0.80749755	0.3497155	0.1551383
O	0.80672645	0.3492355	0.2830185
O	0.80671995	0.34910645	0.4059713
O	0.8076498	0.3474538	0.53158495
O	0.80660435	0.34953375	0.6540559
O	0.81000745	0.34745125	0.7822564
O	0.80823085	0.35187585	0.9075656
O	0.80799685	0.4494363	0.0307821
O	0.80551735	0.44905835	0.1560426
O	0.8076434	0.4519558	0.28073755
O	0.80567775	0.45274045	0.40794955
O	0.8086328	0.4475646	0.5304917
O	0.80812335	0.4492265	0.6554609
O	0.80713715	0.45079415	0.78253535
O	0.80945545	0.44886135	0.9044824
O	0.8073449	0.5514137	0.0304779
O	0.80664865	0.5524696	0.15549845
O	0.80609105	0.55110355	0.2810849
O	0.8077987	0.55150055	0.405216
O	0.80709825	0.55245355	0.53123885
O	0.8076659	0.54897275	0.6568545
O	0.8065676	0.5517065	0.7809107
O	0.80912875	0.5460022	0.90576235
O	0.8079325	0.64895735	0.02880395
O	0.8044391	0.65318505	0.15570015
O	0.8070716	0.64872535	0.27988765
O	0.8057491	0.6482851	0.40801355
O	0.80555435	0.6512063	0.53092945
O	0.8052835	0.65292325	0.6550787
O	0.806929	0.65200855	0.78426415
O	0.8067895	0.64878735	0.90569635
O	0.8067675	0.75195415	0.0308858
O	0.8073391	0.74919425	0.1550217
O	0.80854895	0.74878305	0.2827199
O	0.8083789	0.74906015	0.40383565
O	0.8071682	0.7505557	0.52926375
O	0.8058694	0.7503484	0.6578641
O	0.80712325	0.74778765	0.78154895
O	0.80611005	0.749397	0.90676745
O	0.8054168	0.84854085	0.0306694
O	0.80892505	0.8477844	0.15525495
O	0.8070698	0.85067865	0.280682
O	0.8048846	0.84979685	0.40489095
O	0.80869585	0.85079365	0.53105135
O	0.8061052	0.84808255	0.6556662
O	0.8071818	0.84509525	0.7820123
O	0.80652995	0.84876095	0.90754575
O	0.8075567	0.9516497	0.03226165
O	0.80926595	0.9500888	0.1549498
O	0.8059666	0.94973315	0.2841513
O	0.8048672	0.9494428	0.40609555
O	0.8071097	0.9507847	0.530796
O	0.8066923	0.95132315	0.65675705
O	0.8075435	0.9515311	0.78020165
O	0.8072634	0.95172405	0.90749745
O	0.90636585	0.04861335	0.03043635
O	0.90478575	0.04871125	0.15522085
O	0.90595985	0.04778745	0.28224565
O	0.9068652	0.05078465	0.4073698
O	0.90813635	0.0483372	0.531602
O	0.90633215	0.05141295	0.6574738
O	0.90791665	0.05126845	0.7809639
O	0.90544865	0.0478548	0.90734005
O	0.90496025	0.14821795	0.03208855
O	0.9066973	0.1516087	0.1562946
O	0.90604805	0.1497002	0.27955815
O	0.907453	0.1507099	0.4074725
O	0.90641575	0.15220555	0.5299402
O	0.9090029	0.1492599	0.65779685
O	0.90603835	0.1491251	0.7813803
O	0.9065937	0.1491545	0.90617055
O	0.9065011	0.2540506	0.03125835
O	0.90699685	0.25119715	0.15571105
O	0.9096299	0.25143705	0.28084585
O	0.90462195	0.2495255	0.40672725
O	0.90607595	0.2489751	0.5316402
O	0.911377	0.249702	0.6565665
O	0.90640865	0.24828965	0.7820599
O	0.90735615	0.2485232	0.90785245
O	0.9072229	0.3495962	0.0295163
O	0.9063695	0.3533773	0.15466225
O	0.90744545	0.3506816	0.28060745
O	0.90722145	0.3514987	0.4072833
O	0.90579795	0.3502284	0.53177085
O	0.90574755	0.35320215	0.65723835
O	0.9086548	0.34738955	0.78179375
O	0.9048239	0.35104935	0.906127
O	0.90479875	0.4511893	0.03279745
O	0.90608555	0.4506618	0.1577893
O	0.9076692	0.4484838	0.2817168
O	0.90708805	0.44999535	0.4058414
O	0.9058953	0.45144215	0.530872
O	0.90649565	0.45018615	0.65604645
O	0.90776685	0.4510547	0.78281265
O	0.907519	0.45201885	0.90854915
O	0.90690545	0.5489212	0.03155875
O	0.908399	0.55069995	0.1552846
O	0.90838625	0.5486876	0.2832242
O	0.9056106	0.5514337	0.4094122
O	0.9079311	0.5506339	0.53235005
O	0.9032484	0.56739535	0.66057345
O	0.9085867	0.5496055	0.78216305
O	0.90732005	0.54680735	0.90506145
O	0.90466575	0.6495075	0.03162325
O	0.90607555	0.6496359	0.1542555
O	0.907507	0.6506031	0.28090965
O	0.90611715	0.64822315	0.4061483
O	0.9070479	0.64874355	0.5319156
O	0.908804	0.6484925	0.65723405
O	0.9091127	0.65008165	0.7833485
O	0.90720495	0.6487658	0.90670095
O	0.9061481	0.7500531	0.03118735
O	0.9054677	0.7477481	0.1552902
O	0.90719955	0.7532783	0.2818354
O	0.90732325	0.75017015	0.409258
O	0.9077207	0.7506301	0.5319766
O	0.9041907	0.74968865	0.656915
O	0.90698195	0.74678105	0.7796564
O	0.9056385	0.74993095	0.90675965
O	0.90688445	0.85089195	0.0305791
O	0.90772495	0.86410735	0.15284345
O	0.90647545	0.84918825	0.28014045
O	0.90820425	0.84852985	0.40744155
O	0.90808185	0.8497376	0.53257795
O	0.9071501	0.8482715	0.65775555
O	0.906017	0.85021895	0.7825878
O	0.9042065	0.8484249	0.9078044
O	0.9065222	0.95076235	0.03167765
O	0.9076096	0.94772275	0.15703535
O	0.9085314	0.95203565	0.2802894
O	0.90853145	0.94865375	0.40632135
O	0.9078053	0.9496539	0.5316765
O	0.90610455	0.9508052	0.65755095
O	0.90547405	0.94855265	0.7822279
O	0.907634	0.9503919	0.90587945
O	0.05579945	0.000605	0.0943082
O	0.0596391	0.0035783	0.2190235
O	0.05839395	0.00390455	0.3444184
O	0.0563432	0.0027038	0.4687713
O	0.057687	0.00311655	0.5921117
O	0.05578635	0.00283055	0.7192825
O	0.0591029	0.002073	0.8444751
O	0.05665105	0.0032877	0.97018975
O	0.05607935	0.1031513	0.0931217
O	0.0594824	0.10011705	0.21964325
O	0.0565335	0.10209435	0.34385965
O	0.05583365	0.0997561	0.47042745
O	0.0542832	0.10427545	0.59436435
O	0.0572886	0.10093495	0.71904895
O	0.0575224	0.10056405	0.84277095
O	0.05290845	0.10131345	0.96875245
O	0.0551618	0.2041893	0.09245345
O	0.05651105	0.202575	0.21992545
O	0.05887905	0.20454095	0.34474535
O	0.05618555	0.20183985	0.46953365
O	0.0572641	0.2010628	0.59562455
O	0.0582897	0.2031294	0.72027805
O	0.0554056	0.20318455	0.8456162
O	0.05466955	0.20146765	0.96826375
O	0.0572228	0.3029372	0.09403475
O	0.05640365	0.30073755	0.21952905
O	0.0572891	0.3014977	0.3430664
O	0.05761425	0.3006637	0.46964985
O	0.0555638	0.30461735	0.59322275
O	0.05783635	0.30280725	0.71881305
O	0.0560093	0.30156825	0.8440534
O	0.0566867	0.30211995	0.968827
O	0.0544849	0.4023615	0.0934411
O	0.0579913	0.4022554	0.21767355
O	0.054407	0.38344145	0.34309365
O	0.0568665	0.3999942	0.4686458
O	0.05684975	0.4028758	0.59328755
O	0.0569772	0.4022034	0.7198104
O	0.05680135	0.4022102	0.84350495
O	0.05347705	0.4016966	0.9693159
O	0.05654945	0.4978949	0.0939921
O	0.054779	0.50334565	0.21774755
O	0.0559288	0.50137425	0.34252425
O	0.05616155	0.4982864	0.4691248
O	0.0565676	0.50339195	0.5936097
O	0.05796465	0.50401225	0.71969705
O	0.05373865	0.50137305	0.8432032
O	0.0572538	0.50173275	0.97023695
O	0.0538047	0.60256855	0.0929184
O	0.0582985	0.60298815	0.21932675
O	0.05550275	0.6022753	0.34306015
O	0.05574365	0.6032115	0.47052775
O	0.0576328	0.6005321	0.5941369
O	0.058784	0.6027755	0.71825425
O	0.05726605	0.6005786	0.84486775
O	0.057741	0.602346	0.9692359
O	0.05585115	0.70178645	0.09398375
O	0.0578533	0.7033758	0.2199506
O	0.055423	0.67993425	0.345038
O	0.05667045	0.7057733	0.47065515
O	0.05893615	0.7027439	0.5940625
O	0.05636385	0.70299455	0.7181358
O	0.0562106	0.70035345	0.8433693
O	0.05595985	0.70193535	0.96800545
O	0.0590229	0.80292645	0.09279845
O	0.0564088	0.80418345	0.2179677
O	0.0546726	0.80358005	0.3426572
O	0.0542414	0.80346535	0.468101
O	0.05712045	0.80253725	0.59572035
O	0.0552865	0.78488645	0.72228975
O	0.05870075	0.8034772	0.84542165
O	0.0542289	0.80250425	0.9684256
O	0.05604265	0.90229805	0.09401045
O	0.05606345	0.90030755	0.21905435
O	0.05784945	0.9031908	0.3445966
O	0.05779315	0.90148195	0.46992565
O	0.0555977	0.9038322	0.59369985
O	0.05745615	0.9004368	0.7188119
O	0.0567613	0.90068475	0.8442994
O	0.05773245	0.9019601	0.96919575
O	0.15554255	0.0034051	0.09375985
O	0.15662045	0.0028791	0.22093415
O	0.1563672	0.0025448	0.34219055
O	0.15651725	0.99868755	0.4692046
O	0.1562511	0.0018819	0.59557815
O	0.1586571	0.0016948	0.72007505
O	0.1587769	0.0021987	0.84362155
O	0.1582015	0.0018339	0.9686003
O	0.15708495	0.10222485	0.09552655
O	0.1578333	0.1011932	0.2178435
O	0.15834585	0.1010802	0.34366815
O	0.1554936	0.10129835	0.4709432
O	0.1550253	0.1014013	0.5934302
O	0.1578589	0.10096225	0.7200671
O	0.1560832	0.10012975	0.8443335
O	0.15567965	0.1012846	0.96838525
O	0.154334	0.2026254	0.09404315
O	0.156888	0.20160175	0.21860265
O	0.1560736	0.20284065	0.3446839
O	0.1586861	0.20062285	0.46919055
O	0.15590515	0.20047675	0.5965406
O	0.1551806	0.20330585	0.7196097
O	0.15674585	0.2032137	0.84430225
O	0.1554463	0.1998765	0.9699087
O	0.1565801	0.30230315	0.0959683
O	0.15490055	0.3040551	0.21901945
O	0.1537623	0.3024477	0.3432056
O	0.1567497	0.30412345	0.46742795
O	0.15894005	0.3037636	0.59214855
O	0.1564851	0.3039958	0.71831075
O	0.1559576	0.304437	0.84324535
O	0.15632235	0.30251975	0.96878915
O	0.1575432	0.404362	0.09240845
O	0.1569245	0.4010771	0.2198927
O	0.15960825	0.40364265	0.34241115
O	0.15551465	0.39966845	0.47038505
O	0.15458675	0.4016072	0.5932681
O	0.1555431	0.4045919	0.7187663
O	0.15803935	0.4049159	0.84235715
O	0.15828525	0.4027241	0.9688189
O	0.15640805	0.4992496	0.0928136
O	0.1578356	0.50091975	0.21888275
O	0.1569776	0.50226415	0.34325565
O	0.15642735	0.50075005	0.4698802
O	0.15875665	0.5016103	0.59393885
O	0.15739475	0.50144695	0.7187402
O	0.15532465	0.50138425	0.8427253
O	0.15785915	0.50196625	0.96976825
O	0.1564108	0.59684295	0.09523615
O	0.1563489	0.60089465	0.21718755
O	0.15692925	0.5999664	0.34587075
O	0.1581494	0.60002345	0.46978805
O	0.15625285	0.60110005	0.59383145
O	0.1566702	0.6001525	0.71896465
O	0.1580869	0.6031207	0.8439906
O	0.1573721	0.5789238	0.9708381
O	0.15448215	0.7025448	0.09407325
O	0.15514125	0.70245465	0.21914235
O	0.1577528	0.7023632	0.34392055
O	0.15914495	0.70392585	0.4702525
O	0.1535661	0.7041684	0.594608
O	0.15511465	0.70159725	0.7184993
O	0.15814075	0.70099315	0.84486735
O	0.1572642	0.70287195	0.96930755
O	0.15811695	0.8056182	0.0936997
O	0.15733585	0.8007983	0.2186474
O	0.15712295	0.8029479	0.34457225
O	0.15837295	0.80204965	0.47096355
O	0.15636445	0.7995265	0.5948419
O	0.1565626	0.80185405	0.7201821
O	0.15709155	0.8023612	0.8436206
O	0.15597175	0.803711	0.9684214
O	0.1542554	0.9044815	0.0930303
O	0.1571968	0.90154425	0.21914355
O	0.1556783	0.8988693	0.34341845
O	0.1565865	0.9029763	0.46861555
O	0.15719605	0.9015236	0.59302965
O	0.15806055	0.90238225	0.7206114
O	0.1556731	0.90401375	0.8439638
O	0.1571685	0.90296645	0.9674135
O	0.2566438	0.0002734	0.09392
O	0.25604255	0.00015565	0.21865945
O	0.25659385	0.00116385	0.34596955
O	0.25825975	0.00162385	0.46844605
O	0.25747975	0.0022268	0.592714
O	0.254381	0.0013291	0.7178084
O	0.2559842	0.00431115	0.8446295
O	0.25637145	0.00379655	0.9692121
O	0.25694495	0.1001086	0.0933367
O	0.2565522	0.0994718	0.21928865
O	0.2575312	0.1027149	0.3436411
O	0.25778135	0.10234815	0.46897555
O	0.25660635	0.1020329	0.5931748
O	0.25558195	0.10363515	0.71806905
O	0.2565642	0.10277115	0.84316425
O	0.2554711	0.1041783	0.969034
O	0.25661665	0.20301685	0.0937411
O	0.2579082	0.20175045	0.2188744
O	0.25693145	0.20100695	0.3445747
O	0.25684595	0.2043233	0.46965815
O	0.25621835	0.20318055	0.5944081
O	0.2571868	0.2003325	0.72021645
O	0.2561872	0.20058	0.8436209
O	0.2574753	0.20299645	0.97069895
O	0.2554851	0.3030745	0.09569525
O	0.2578514	0.3018486	0.2198284
O	0.25673605	0.3030121	0.3436804
O	0.25349755	0.29943305	0.4700299
O	0.2582692	0.3017719	0.5949177
O	0.2576095	0.3040969	0.71781935
O	0.25642715	0.3044156	0.84175915
O	0.2547158	0.3047769	0.967834
O	0.25601525	0.40186195	0.0945587
O	0.2559429	0.40242225	0.21840855
O	0.260679	0.4030381	0.34481995
O	0.25649455	0.40211955	0.4703839
O	0.2589757	0.40259435	0.59427365
O	0.2580444	0.4022932	0.71938205
O	0.25854155	0.40108345	0.84197665
O	0.25606415	0.40214945	0.9685603
O	0.25664585	0.5034935	0.0944709
O	0.2564696	0.505156	0.21892735
O	0.25322575	0.5008387	0.34449155
O	0.2565465	0.5049115	0.46688995
O	0.25746705	0.5026933	0.5950026
O	0.2571639	0.500518	0.71850165
O	0.25828915	0.5044716	0.84494625
O	0.25737935	0.50371285	0.96841205
O	0.25627055	0.6020504	0.09318255
O	0.25692105	0.60086005	0.2181979
O	0.255882	0.5993023	0.3431272
O	0.2565237	0.60250315	0.4686999
O	0.25523795	0.60064035	0.59465655
O	0.2554352	0.60002735	0.71998325
O	0.2550503	0.603622	0.8451579
O	0.25895725	0.6021565	0.96946165
O	0.2562994	0.701365	0.0941225
O	0.25662345	0.7008377	0.2180401
O	0.2562597	0.70153995	0.34507785
O	0.2591163	0.70353285	0.4669297
O	0.2565178	0.6992615	0.59123395
O	0.25607475	0.70138925	0.71804285
O	0.25406295	0.70423215	0.8427949
O	0.2547241	0.70429175	0.9695959
O	0.25837495	0.80410235	0.0929356
O	0.25750535	0.80395275	0.2188361
O	0.2576648	0.80501305	0.3441161
O	0.25561345	0.8002715	0.46923425
O	0.25745935	0.80298225	0.59501195
O	0.2568465	0.80311385	0.7181648
O	0.2568687	0.80236365	0.84197945
O	0.2580086	0.80266935	0.96798415
O	0.2552134	0.9004636	0.0941937
O	0.25795815	0.90362165	0.21813665
O	0.2574206	0.90306285	0.3437688
O	0.2572265	0.9023503	0.4696276
O	0.25604695	0.9030267	0.59375745
O	0.2556495	0.9028542	0.7193446
O	0.25572655	0.90222475	0.8438014
O	0.2564494	0.9027943	0.96910045
O	0.3580394	0.0041293	0.096121
O	0.3576063	0.00269605	0.2179883
O	0.35920525	0.9821264	0.34388485
O	0.35432295	0.0020295	0.4686426
O	0.3562402	0.0019287	0.5934735
O	0.35799065	0.00257335	0.71944025
O	0.3581177	0.0003423	0.84491285
O	0.3566733	0.00351215	0.96964515
O	0.35620875	0.10363225	0.0938357
O	0.3574666	0.10142915	0.21905395
O	0.3570127	0.10233535	0.344017
O	0.3566944	0.1007953	0.4674655
O	0.3549999	0.1021972	0.59418235
O	0.3573854	0.0983845	0.71865095
O	0.35514495	0.09898555	0.84245675
O	0.35669095	0.1016266	0.96876365
O	0.3580972	0.2023525	0.0928668
O	0.35525265	0.2026724	0.2189204
O	0.3591134	0.20112495	0.34323835
O	0.35593895	0.20102415	0.46949015
O	0.3567049	0.20120905	0.5935106
O	0.3562657	0.1982975	0.7173055
O	0.35349315	0.17924765	0.84559725
O	0.3567122	0.1807531	0.962466
O	0.35710255	0.3043557	0.0951712
O	0.3556663	0.30198125	0.2186873
O	0.35737785	0.299064	0.34631665
O	0.35693125	0.3022837	0.4671868
O	0.3566994	0.30317915	0.5931334
O	0.35620025	0.3019102	0.7181173
O	0.35775975	0.30302755	0.842874
O	0.35813215	0.30266365	0.968813
O	0.35765285	0.40210875	0.09349255
O	0.35789825	0.40139855	0.21946625
O	0.3583914	0.40395095	0.34522085
O	0.3551931	0.4040087	0.46823505
O	0.3562447	0.40213585	0.5939544
O	0.3558785	0.40285155	0.71870535
O	0.35600435	0.40310565	0.84372565
O	0.35711395	0.40374775	0.9693091
O	0.35859515	0.505757	0.0930327
O	0.35560695	0.50272885	0.21867295
O	0.35469505	0.50250965	0.34481965
O	0.35826985	0.50366785	0.47127725
O	0.3569849	0.501917	0.594505
O	0.3589927	0.50110335	0.71834645
O	0.35393335	0.50284335	0.84462435
O	0.3584493	0.5033371	0.9684536
O	0.3573073	0.60136285	0.0944762
O	0.35851935	0.60010945	0.21839975
O	0.3560813	0.6011037	0.344896
O	0.3571479	0.59917135	0.4689745
O	0.3557479	0.60180265	0.59389445
O	0.35581245	0.60398735	0.7193837
O	0.3574289	0.60162885	0.8436826
O	0.3562805	0.6013279	0.9664256
O	0.3577948	0.7012959	0.09536125
O	0.35972515	0.70274245	0.2184108
O	0.3568213	0.7021414	0.3438009
O	0.35514925	0.70066865	0.4675291
O	0.35616905	0.70095225	0.59418665
O	0.35572135	0.70080735	0.71523
O	0.3555319	0.7023605	0.84224745
O	0.3562922	0.70275835	0.96773075
O	0.3554565	0.80156255	0.09366455
O	0.355379	0.80401285	0.21785875
O	0.35784405	0.8021521	0.34448525
O	0.3593354	0.8051894	0.469129
O	0.3568012	0.80429055	0.5946442
O	0.35741975	0.8048091	0.7187579
O	0.35677945	0.80127635	0.842931
O	0.35598295	0.8054109	0.9709279
O	0.3543734	0.9038121	0.0935649
O	0.3549461	0.90523225	0.2181361
O	0.3580485	0.90374195	0.3445003
O	0.35705955	0.90421685	0.46904835
O	0.35764475	0.90457355	0.5942067
O	0.3564863	0.9017527	0.7185249
O	0.3561632	0.9033418	0.8444175
O	0.35575	0.9022054	0.9693307
O	0.4541452	0.0039943	0.0949132
O	0.45689375	0.00193855	0.22201905
O	0.45801305	0.00440825	0.34291685
O	0.45398875	0.0028882	0.4682616
O	0.45682575	0.0020328	0.59392125
O	0.45588715	0.0027725	0.7213471
O	0.4563457	0.001277	0.84369025
O	0.45714395	0.00438865	0.96721265
O	0.45769655	0.1013736	0.0929237
O	0.4597356	0.1018631	0.21949805
O	0.4562575	0.09914815	0.34435095
O	0.4562554	0.1032413	0.4686774
O	0.45532765	0.10182255	0.59487285
O	0.4565207	0.10089005	0.7201748
O	0.4583955	0.10072305	0.8434048
O	0.457335	0.0988609	0.96671355
O	0.45458895	0.2022189	0.0936251
O	0.4573294	0.2028207	0.217887
O	0.45648545	0.2022752	0.34425355
O	0.45657695	0.1998898	0.4681264
O	0.4572489	0.20149435	0.5947509
O	0.4588599	0.2005985	0.7193129
O	0.4565295	0.1988915	0.8432216
O	0.4585407	0.19962455	0.9668366
O	0.45653875	0.30572995	0.09321505
O	0.4586416	0.3000162	0.2203181
O	0.45355205	0.3044372	0.3418396
O	0.4561479	0.3030797	0.4704158
O	0.45775395	0.3023419	0.5917568
O	0.4553757	0.30210845	0.7198858
O	0.45708445	0.30320925	0.8429999
O	0.4562146	0.30299255	0.96997065
O	0.4563471	0.4026665	0.0938046
O	0.45641205	0.40373655	0.21860685
O	0.45581115	0.4032352	0.34272035
O	0.45731565	0.4034544	0.4679762
O	0.45593955	0.40240755	0.5935239
O	0.45378275	0.4014175	0.71818515
O	0.4557131	0.4029501	0.84448035
O	0.45619155	0.40256195	0.96825905
O	0.45630965	0.50348855	0.09278145
O	0.4551346	0.5035232	0.2193166
O	0.45666335	0.5022588	0.34432075
O	0.4560249	0.5040231	0.4669782
O	0.45467965	0.50219915	0.59419515
O	0.4584743	0.5043252	0.7196749
O	0.4588447	0.50322435	0.843566
O	0.45610955	0.50386015	0.9677096
O	0.45760835	0.60198305	0.09611775
O	0.4564667	0.6036615	0.2219188
O	0.45502315	0.60203455	0.34372575
O	0.45523105	0.60151675	0.4689
O	0.4587259	0.6020547	0.59260895
O	0.45717	0.6020498	0.7190481
O	0.45640705	0.60152135	0.84403385
O	0.457636	0.5983249	0.96959465
O	0.45727635	0.70248855	0.09476215
O	0.45497805	0.69949795	0.21901925
O	0.4552604	0.70202895	0.34523225
O	0.45664865	0.70257915	0.469525
O	0.45669035	0.7018948	0.5945843
O	0.45694025	0.7043977	0.71918875
O	0.45779465	0.7021263	0.8450725
O	0.45483025	0.70221025	0.9678858
O	0.4559225	0.8051175	0.09412045
O	0.4595249	0.8016755	0.2188757
O	0.45730245	0.80237185	0.34171885
O	0.4556292	0.8019541	0.4687656
O	0.4562355	0.8008927	0.5934275
O	0.45471505	0.8022974	0.7172493
O	0.4540987	0.80331415	0.8438641
O	0.45713655	0.8038743	0.96918485
O	0.45950075	0.9017426	0.0929863
O	0.45779325	0.90296215	0.21753795
O	0.4575356	0.9029401	0.3430555
O	0.4565367	0.9026429	0.4684667
O	0.4592287	0.9000566	0.5923125
O	0.45687735	0.90275015	0.72039465
O	0.45511615	0.9039628	0.84357755
O	0.45841465	0.9040434	0.9680456
O	0.5563831	0.0013773	0.09545145
O	0.5575399	0.99965065	0.21707895
O	0.5538859	0.00391925	0.3450641
O	0.55577205	0.00144195	0.46993605
O	0.55400265	0.00201585	0.59367845
O	0.555842	0.0047484	0.71851275
O	0.55742715	0.00483185	0.84577805
O	0.5564907	0.0024886	0.9675669
O	0.55742155	0.1034608	0.0943281
O	0.5557035	0.10164145	0.219784
O	0.5582401	0.1011925	0.34458005
O	0.55880735	0.1021677	0.46808685
O	0.5572691	0.10155455	0.59244105
O	0.55761055	0.10332365	0.71976815
O	0.5578862	0.09969895	0.84610645
O	0.55787345	0.0991602	0.9689319
O	0.5582687	0.20101035	0.094358
O	0.55772645	0.1796529	0.21889685
O	0.55760815	0.20104005	0.3427468
O	0.5569779	0.2004689	0.47015075
O	0.5572535	0.2000095	0.59361355
O	0.5586467	0.20092625	0.7209715
O	0.55750485	0.20210035	0.8451287
O	0.5585285	0.2009308	0.96943765
O	0.5542068	0.3046544	0.0946983
O	0.55710515	0.30093185	0.2195547
O	0.55767105	0.3012724	0.3422238
O	0.55690215	0.30203345	0.46760965
O	0.55803445	0.30192955	0.5943343
O	0.55748555	0.3023337	0.71963425
O	0.55862275	0.29711455	0.84525985
O	0.5585104	0.30178355	0.96843625
O	0.55757425	0.381037	0.0939977
O	0.55957895	0.40326205	0.21786845
O	0.558336	0.40350085	0.3445143
O	0.5573631	0.40046545	0.4681688
O	0.5571408	0.40472215	0.59451775
O	0.5533686	0.38168765	0.7237896
O	0.5587695	0.40227665	0.8456277
O	0.5559521	0.4043698	0.9674493
O	0.55603825	0.48105955	0.09011335
O	0.55707695	0.5031053	0.21851125
O	0.555928	0.50301325	0.3440617
O	0.55768645	0.50310955	0.46863965
O	0.55754465	0.50097565	0.59343915
O	0.55859595	0.5032225	0.718799
O	0.55636845	0.5010104	0.8443782
O	0.55527995	0.5023616	0.96820725
O	0.55519995	0.60395645	0.0929081
O	0.5569323	0.59978465	0.2196131
O	0.55867045	0.6007293	0.34271665
O	0.55786265	0.60201275	0.46735975
O	0.55772375	0.6000395	0.59425265
O	0.5591735	0.6015278	0.7202651
O	0.55578955	0.60212535	0.84461885
O	0.55505745	0.601523	0.9701543
O	0.55945195	0.703342	0.0944841
O	0.5548685	0.69922205	0.21638005
O	0.5568513	0.70109935	0.34427005
O	0.55712085	0.70309655	0.46727925
O	0.55799075	0.7014317	0.5939596
O	0.558016	0.7034645	0.71883485
O	0.5557352	0.7025454	0.84397605
O	0.55824135	0.7004861	0.96677335
O	0.55637695	0.8025235	0.09486565
O	0.55830315	0.80102895	0.2194181
O	0.5562475	0.8015701	0.3445203
O	0.5602983	0.8009544	0.4686937
O	0.5556797	0.80551195	0.59477685
O	0.5571042	0.80544865	0.7188534
O	0.5589802	0.80158255	0.844775
O	0.55754955	0.8038252	0.96926005
O	0.55597095	0.8812659	0.0937209
O	0.5554361	0.9026985	0.2184339
O	0.55689785	0.9037658	0.3422206
O	0.55736725	0.90341265	0.46851815
O	0.5564532	0.903116	0.5949045
O	0.55571495	0.90469845	0.7180992
O	0.55564705	0.9015451	0.84221665
O	0.5554648	0.90255095	0.9685605
O	0.65688995	0.0036714	0.09387025
O	0.6563166	0.00147795	0.219543
O	0.65754875	0.0046117	0.34482625
O	0.6569409	0.0032818	0.4677352
O	0.656999	0.00411785	0.59493935
O	0.65633605	0.00205625	0.719118
O	0.65632585	0.00159185	0.8447354
O	0.65684555	0.00329485	0.97048765
O	0.65641905	0.10197495	0.09473545
O	0.657091	0.1004214	0.219535
O	0.65656465	0.1017099	0.34307075
O	0.65738595	0.1003589	0.4680853
O	0.65704635	0.1025172	0.5946554
O	0.65375105	0.10414675	0.71765245
O	0.65646225	0.103389	0.84332425
O	0.6559272	0.10182175	0.96840665
O	0.65810055	0.1995919	0.09416095
O	0.65781815	0.19943515	0.2196823
O	0.6573973	0.20122525	0.34311185
O	0.6560958	0.20073665	0.46751905
O	0.6582466	0.19932205	0.59282955
O	0.6565347	0.2005383	0.7184708
O	0.65952735	0.20443735	0.8425623
O	0.6561088	0.20277485	0.96767765
O	0.65703555	0.30247865	0.0931172
O	0.657881	0.3022871	0.22092345
O	0.65763235	0.302025	0.34596645
O	0.65649025	0.3018788	0.4680546
O	0.65683595	0.3043175	0.5924996
O	0.6552445	0.3017865	0.72105755
O	0.6566881	0.3016724	0.84294465
O	0.6559198	0.30339005	0.9689045
O	0.6531945	0.4042313	0.09300725
O	0.65660395	0.4017907	0.2188475
O	0.6560888	0.4036269	0.3426556
O	0.65684075	0.4005253	0.4685593
O	0.65746525	0.40256295	0.59513705
O	0.6581082	0.40372665	0.71882325
O	0.657999	0.4025631	0.84259955
O	0.6565669	0.40333165	0.9692339
O	0.65561585	0.50131165	0.09461605
O	0.6559611	0.50149125	0.2185241
O	0.6575217	0.5028603	0.3426376
O	0.6571345	0.50140235	0.46948975
O	0.65711475	0.501345	0.59330665
O	0.65403125	0.5008746	0.7185399
O	0.65829125	0.5030886	0.8440346
O	0.6560738	0.50217325	0.9685949
O	0.6573386	0.6007075	0.0928013
O	0.65531045	0.6025915	0.2184266
O	0.658197	0.6013424	0.3443343
O	0.6568874	0.6036894	0.46836525
O	0.65651755	0.6050325	0.5920966
O	0.6561261	0.6007579	0.71938785
O	0.65749605	0.6001932	0.844528
O	0.65546825	0.60217935	0.96955865
O	0.6550319	0.70239125	0.0946298
O	0.65767465	0.70020905	0.21810065
O	0.6554916	0.7033265	0.34441755
O	0.66000235	0.7035486	0.4689259
O	0.6551299	0.7015018	0.59399135
O	0.65829125	0.70096285	0.71904125
O	0.6568261	0.70284865	0.8442708
O	0.656045	0.7026258	0.9695761
O	0.65772905	0.80477075	0.09428475
O	0.6574227	0.8032962	0.2182935
O	0.65609735	0.8020597	0.33988635
O	0.6573236	0.80455485	0.46779535
O	0.65626105	0.80329095	0.5927289
O	0.6564472	0.80329435	0.7189036
O	0.6570137	0.8027126	0.84550175
O	0.656109	0.80161285	0.96824935
O	0.65730645	0.90192675	0.09428455
O	0.6559282	0.9030228	0.218681
O	0.6562667	0.90273465	0.3434102
O	0.65674515	0.90306625	0.469238
O	0.6559624	0.9031375	0.5938707
O	0.6560473	0.9048428	0.720604
O	0.65797085	0.90299605	0.84481125
O	0.6557223	0.9022218	0.96782725
O	0.7565256	0.00243045	0.0936165
O	0.7554257	0.00078485	0.2181447
O	0.7581401	0.00256575	0.3458484
O	0.7554764	0.00072345	0.46895965
O	0.75610435	0.0033325	0.59591105
O	0.7591232	0.0030687	0.71861345
O	0.756131	0.0045633	0.8419194
O	0.75658275	0.00131375	0.96785235
O	0.7580976	0.10257525	0.0929286
O	0.75658975	0.10246795	0.2173588
O	0.75473615	0.1038488	0.343352
O	0.75736985	0.1020548	0.4686974
O	0.7567902	0.10187265	0.5938443
O	0.75608175	0.10157725	0.71908515
O	0.7562414	0.09925125	0.8440525
O	0.75701205	0.1006481	0.9674513
O	0.755796	0.2037056	0.0949077
O	0.75671715	0.19800435	0.22057075
O	0.756057	0.2011933	0.3450321
O	0.75599395	0.20248685	0.4675342
O	0.75479955	0.20254895	0.5931747
O	0.7584884	0.2000575	0.71778585
O	0.7547617	0.20165195	0.84468385
O	0.75790385	0.20050635	0.9677181
O	0.7568045	0.3012919	0.0941461
O	0.75633375	0.3042407	0.2186167
O	0.75425825	0.30154355	0.3439397
O	0.7559167	0.30180395	0.468058
O	0.7585603	0.30282325	0.5912389
O	0.7564973	0.30104025	0.71868045
O	0.75572295	0.30465175	0.84184545
O	0.7539276	0.30446645	0.96743805
O	0.7560636	0.40279945	0.095171
O	0.75574945	0.40169475	0.21977875
O	0.7566532	0.40537065	0.34441395
O	0.75706205	0.4021451	0.46890375
O	0.7560771	0.4043925	0.59417545
O	0.7558833	0.4010113	0.7196929
O	0.75911085	0.40101345	0.8443893
O	0.75653435	0.4001407	0.96871005
O	0.75560675	0.50048565	0.09179645
O	0.7565033	0.49982605	0.21789205
O	0.75693185	0.50235835	0.3451543
O	0.75519455	0.5020153	0.46943775
O	0.7573739	0.5000552	0.5935439
O	0.7581604	0.50220905	0.71833045
O	0.75795975	0.50154765	0.84418675
O	0.75499715	0.50210635	0.96791325
O	0.75934125	0.60188095	0.0931178
O	0.75611755	0.6012822	0.21826175
O	0.7566184	0.6026669	0.34236275
O	0.75477665	0.60294905	0.46810605
O	0.7572622	0.60123985	0.5928855
O	0.7546151	0.6015438	0.7196382
O	0.7586565	0.6029878	0.8433037
O	0.75584905	0.60203495	0.97121055
O	0.7566589	0.70276925	0.0938112
O	0.7569861	0.70173825	0.21856395
O	0.7568412	0.702557	0.34405765
O	0.7552886	0.70210825	0.46771855
O	0.75663195	0.70276665	0.59410225
O	0.75638865	0.70378975	0.71891975
O	0.75686575	0.70159235	0.84623045
O	0.75697695	0.7023255	0.96842235
O	0.75923125	0.79989845	0.09315705
O	0.75570975	0.8012033	0.21853115
O	0.7579053	0.8054062	0.34481675
O	0.75697575	0.80214155	0.46894515
O	0.75634945	0.79941965	0.5946547
O	0.75678555	0.8013509	0.71763625
O	0.75800365	0.80362835	0.8428391
O	0.75616055	0.80149075	0.9694616
O	0.7579012	0.9024465	0.09357395
O	0.7576442	0.90267575	0.21870725
O	0.7552768	0.9030642	0.3439143
O	0.7543737	0.899982	0.47005525
O	0.7565509	0.9012769	0.59360745
O	0.7575201	0.9023586	0.7190458
O	0.7563035	0.90248055	0.84476335
O	0.7559819	0.9020097	0.96836435
O	0.8573874	0.0023131	0.0917428
O	0.85848725	0.0012332	0.21851265
O	0.8576024	0.00269515	0.34370615
O	0.85551115	0.00063035	0.4692235
O	0.8595452	0.00115895	0.5925663
O	0.854759	0.0013375	0.71846065
O	0.85806955	0.99971175	0.8434152
O	0.85748465	0.00214665	0.9691931
O	0.85660515	0.102482	0.09268435
O	0.85591105	0.1002079	0.2190843
O	0.85439065	0.10218835	0.34301955
O	0.8542115	0.1005425	0.4710602
O	0.86875235	0.11998525	0.5917064
O	0.8576972	0.10260465	0.72008875
O	0.8567616	0.10188155	0.8441277
O	0.85603485	0.10197855	0.96844485
O	0.85596795	0.2003153	0.09415085
O	0.8549933	0.2020311	0.2200205
O	0.85638005	0.2029935	0.34534045
O	0.85490705	0.20244385	0.46751535
O	0.856793	0.20318235	0.59540315
O	0.8567129	0.2020778	0.71913705
O	0.8567335	0.20469605	0.84412065
O	0.8574265	0.2023705	0.97062155
O	0.8562293	0.3022759	0.09394305
O	0.857955	0.302054	0.2203461
O	0.8549748	0.30359305	0.34544785
O	0.856288	0.3014265	0.46787415
O	0.85755525	0.3030059	0.59535765
O	0.85747285	0.3018003	0.7198055
O	0.85890505	0.30319195	0.8438234
O	0.8571475	0.3004826	0.9686888
O	0.85940085	0.4031233	0.09398675
O	0.8572594	0.4023255	0.21788285
O	0.85782065	0.4019917	0.34203815
O	0.85582525	0.4036072	0.47108805
O	0.8555895	0.38047395	0.59294345
O	0.8560342	0.4021036	0.72008445
O	0.856276	0.402062	0.84411825
O	0.85899365	0.40408035	0.96815875
O	0.8576193	0.50242935	0.09430055
O	0.8538906	0.50194575	0.21875445
O	0.85938385	0.5048522	0.34595885
O	0.85615825	0.5036207	0.46979085
O	0.8564031	0.5019865	0.59240385
O	0.85659905	0.49983565	0.71977465
O	0.85906855	0.50279255	0.84408125
O	0.85770115	0.50192595	0.9667681
O	0.85586155	0.60284145	0.0921967
O	0.85639595	0.6017847	0.21802535
O	0.857021	0.60422705	0.34396905
O	0.8562218	0.6000574	0.46672565
O	0.85683825	0.60132875	0.5929052
O	0.85742975	0.601041	0.7202791
O	0.85541475	0.5994537	0.8447135
O	0.85697465	0.6025719	0.96895715
O	0.8565012	0.70308305	0.09222525
O	0.8560545	0.7028171	0.21926735
O	0.85555855	0.70562225	0.3428816
O	0.8553625	0.70263045	0.46873535
O	0.8550521	0.70011885	0.59448365
O	0.85392595	0.70253135	0.71984835
O	0.8572352	0.7024977	0.8448636
O	0.8550018	0.7035725	0.9685673
O	0.85783555	0.80201855	0.09302255
O	0.85466085	0.8029742	0.2186436
O	0.8554256	0.80417555	0.34335865
O	0.85700785	0.7787572	0.47205965
O	0.85657505	0.8014863	0.5949176
O	0.85568965	0.80347335	0.7194105
O	0.85827795	0.803756	0.84383285
O	0.8573387	0.7999948	0.97110635
O	0.85717685	0.9022418	0.0933702
O	0.8569415	0.90560635	0.21669435
O	0.8562412	0.9013066	0.34265755
O	0.85752515	0.90184015	0.46567655
O	0.85634155	0.90215325	0.59523455
O	0.8563311	0.87995585	0.7251977
O	0.85478815	0.8986699	0.84583025
O	0.857055	0.90077255	0.9677935
O	0.9584751	0.0023696	0.0943279
O	0.95519605	0.00273345	0.21837845
O	0.95709435	0.00294365	0.3433982
O	0.9598185	0.00481	0.4669732
O	0.9558921	0.00421425	0.5935876
O	0.95799185	0.0005713	0.72021995
O	0.95647695	0.0042489	0.84622465
O	0.95798575	0.0040265	0.9682549
O	0.95688775	0.1007374	0.09343505
O	0.9581835	0.10053185	0.2200397
O	0.95698735	0.10290965	0.3439549
O	0.956605	0.1028976	0.4700126
O	0.95898435	0.1040989	0.59364205
O	0.95870645	0.10212135	0.71809745
O	0.95861655	0.1044349	0.84228
O	0.9580594	0.10245575	0.9683721
O	0.95624465	0.20199785	0.0931236
O	0.9572116	0.2014024	0.2179756
O	0.9570145	0.20075745	0.34422415
O	0.9545645	0.20180875	0.46995655
O	0.9560239	0.2039081	0.59381875
O	0.9564985	0.20383245	0.71866175
O	0.95684685	0.20221135	0.84442
O	0.95540705	0.20443285	0.96818855
O	0.95766875	0.2996164	0.09333975
O	0.9558746	0.30347085	0.21707945
O	0.9548195	0.2823531	0.3479938
O	0.95568465	0.3035305	0.46822235
O	0.9549518	0.30396095	0.5942973
O	0.95571465	0.3024538	0.7183428
O	0.95629775	0.3016658	0.84511885
O	0.95787325	0.2994739	0.96685315
O	0.95738065	0.40343725	0.09427825
O	0.9552694	0.40498115	0.2188665
O	0.9574603	0.3839648	0.3374115
O	0.9588415	0.40223065	0.46744335
O	0.95795165	0.4048336	0.5939866
O	0.9570033	0.4033115	0.71890915
O	0.95692585	0.402368	0.84305855
O	0.9570846	0.40244815	0.96823875
O	0.9548402	0.5026679	0.09204285
O	0.955467	0.502584	0.2197206
O	0.95943795	0.4995203	0.34476965
O	0.9583409	0.49982125	0.4691808
O	0.95566945	0.5009235	0.5937374
O	0.95705845	0.50433815	0.71817815
O	0.9571519	0.49955095	0.8445261
O	0.95714675	0.50272135	0.96818755
O	0.9581599	0.6030585	0.09379925
O	0.9555178	0.6020708	0.2177881
O	0.95541205	0.60377525	0.34260325
O	0.9568214	0.60189835	0.46909545
O	0.9538346	0.59811935	0.5943862
O	0.95603535	0.60251255	0.71927605
O	0.9582134	0.60219425	0.8436417
O	0.955562	0.6044089	0.9693518
O	0.9558731	0.7053838	0.0958527
O	0.95898625	0.69650505	0.21808375
O	0.9586072	0.69969425	0.3436002
O	0.95635455	0.70187195	0.467518
O	0.9570143	0.7033765	0.5951141
O	0.9564721	0.7035367	0.7185359
O	0.95531855	0.70177005	0.8440755
O	0.95451485	0.70224355	0.9680409
O	0.9560036	0.8014244	0.0932649
O	0.9560417	0.8025655	0.21820965
O	0.95835925	0.80220105	0.34492165
O	0.956814	0.80198055	0.4705658
O	0.95508695	0.80104795	0.59276175
O	0.95910845	0.7785575	0.7205361
O	0.9582818	0.8029429	0.8447677
O	0.9535328	0.8032647	0.96914825
O	0.9556504	0.90220165	0.09483485
O	0.95772745	0.90303025	0.217587
O	0.9571058	0.9010637	0.3431474
O	0.9586884	0.9006463	0.4695982
O	0.9580009	0.9037507	0.5942031
O	0.95704805	0.90116245	0.7196898
O	0.95608385	0.90082725	0.84466115
O	0.95720855	0.90101685	0.96804825
O	0.0930193	0.0506629	0.09283735
O	0.0921261	0.05367375	0.2192388
O	0.0932982	0.033576	0.3425303
O	0.09252335	0.0518802	0.47026075
O	0.09170715	0.0516496	0.5952201
O	0.09438625	0.0514657	0.71968385
O	0.091339	0.0501988	0.84326255
O	0.0908524	0.05102995	0.9672553
O	0.0936574	0.15199125	0.0945873
O	0.09149785	0.15095365	0.21663615
O	0.0926234	0.1481411	0.34368725
O	0.09399035	0.1526017	0.4701058
O	0.0928275	0.1537937	0.5938491
O	0.09120875	0.15121285	0.71965115
O	0.09158195	0.1484447	0.84451715
O	0.09069345	0.1525097	0.9703352
O	0.09011285	0.25127885	0.09313395
O	0.09151195	0.25124465	0.2186668
O	0.0904699	0.2548232	0.343721
O	0.0912358	0.2537023	0.4707587
O	0.093722	0.2524389	0.594294
O	0.09356245	0.2521569	0.7192597
O	0.09202975	0.25178905	0.8436295
O	0.0902702	0.25153015	0.9695231
O	0.09070875	0.3528256	0.09399985
O	0.0916733	0.3510343	0.2183955
O	0.09156975	0.35126045	0.3438666
O	0.0931064	0.35156635	0.46787005
O	0.09227435	0.35348435	0.5957467
O	0.0927744	0.35142945	0.719403
O	0.0918271	0.35315825	0.8459122
O	0.091358	0.3532355	0.96756725
O	0.0925996	0.45053575	0.09272095
O	0.09102025	0.44957585	0.2184272
O	0.08977105	0.4514904	0.345803
O	0.09211715	0.4521226	0.46632995
O	0.0899169	0.4511886	0.5927693
O	0.09251	0.45184275	0.7181701
O	0.09065535	0.45304085	0.845377
O	0.09149185	0.45123705	0.9688156
O	0.08221365	0.5296685	0.09716715
O	0.09332195	0.5521246	0.21952725
O	0.0926841	0.5540379	0.34451005
O	0.09062325	0.55433365	0.4684635
O	0.09051195	0.5515295	0.59544765
O	0.09185395	0.55339815	0.7178539
O	0.09130035	0.55209935	0.8443364
O	0.0900373	0.55030965	0.9684421
O	0.0916795	0.64823535	0.09374615
O	0.091431	0.65276265	0.21976735
O	0.09139075	0.652999	0.3436987
O	0.0898133	0.6525563	0.46977855
O	0.09222285	0.65017985	0.5935911
O	0.0911483	0.6489265	0.71927325
O	0.09140335	0.6514372	0.8433611
O	0.09171155	0.65072275	0.9670901
O	0.0922654	0.7525605	0.09260015
O	0.0920419	0.75184545	0.21931145
O	0.09297605	0.7530916	0.34220825
O	0.09295165	0.74843135	0.4689337
O	0.09369345	0.7541434	0.59365255
O	0.09185315	0.75133745	0.7201756
O	0.0915951	0.7509979	0.8437675
O	0.09086935	0.75301225	0.9679496
O	0.09249135	0.85430775	0.09321645
O	0.0920292	0.85292535	0.2208355
O	0.08952675	0.85274905	0.34386465
O	0.092412	0.8495629	0.46866145
O	0.0917216	0.85383315	0.59403675
O	0.09474225	0.85063775	0.7199623
O	0.09106305	0.85159525	0.843146
O	0.09242975	0.8517713	0.9682421
O	0.09276025	0.9491735	0.0949825
O	0.0924843	0.9508672	0.2196714
O	0.09315225	0.9499775	0.34363595
O	0.09286865	0.9481979	0.4686466
O	0.09258245	0.9448216	0.59172895
O	0.091013	0.95177855	0.72154065
O	0.0899962	0.9504416	0.84302965
O	0.0908953	0.95222935	0.967832
O	0.1904513	0.05107905	0.09318495
O	0.1917237	0.0519563	0.2196025
O	0.1934172	0.0513172	0.3439261
O	0.1930033	0.05224565	0.46858265
O	0.1927782	0.0524058	0.59383235
O	0.19186895	0.05079055	0.71797145
O	0.1914725	0.0511571	0.843722
O	0.19153485	0.0536385	0.96757085
O	0.18958795	0.1516585	0.09272625
O	0.19263045	0.15147585	0.21810385
O	0.1908125	0.1540188	0.34367775
O	0.1924354	0.1492847	0.46938145
O	0.1920986	0.15064785	0.5933434
O	0.1922193	0.15185185	0.71872625
O	0.19025175	0.1523234	0.8432666
O	0.1903588	0.1532269	0.96841845
O	0.1926822	0.2502427	0.0922191
O	0.1919776	0.25151295	0.22003045
O	0.19085015	0.25015285	0.34554865
O	0.18986175	0.2509889	0.467868
O	0.1905239	0.25190215	0.59481225
O	0.1973125	0.2338414	0.717538
O	0.1919844	0.2524842	0.84454185
O	0.191496	0.25017355	0.9674262
O	0.1905809	0.35298465	0.09208805
O	0.19002225	0.35147145	0.2191805
O	0.19072505	0.35130085	0.34555425
O	0.1896135	0.3526628	0.46984995
O	0.19320775	0.35195115	0.59460695
O	0.19413075	0.35107665	0.7187
O	0.1912768	0.35093515	0.8436828
O	0.19265075	0.3491368	0.9684588
O	0.18938745	0.45225665	0.0935724
O	0.19180025	0.4506064	0.216832
O	0.19159085	0.4486821	0.34264465
O	0.1912088	0.45168535	0.4700298
O	0.19115435	0.45385855	0.5949632
O	0.19141565	0.45022375	0.7170407
O	0.1902567	0.4525669	0.84316045
O	0.1934672	0.4528409	0.9683674
O	0.19202585	0.5507561	0.09264265
O	0.1917735	0.5474647	0.2192282
O	0.19037455	0.55246775	0.3439636
O	0.19226695	0.55033495	0.4680399
O	0.1914978	0.5488113	0.59528055
O	0.1916115	0.5518097	0.71718525
O	0.1909549	0.54903055	0.8446023
O	0.19037135	0.55087305	0.9694989
O	0.1927863	0.6489929	0.0943349
O	0.18882955	0.64994765	0.21797855
O	0.1919177	0.65049025	0.3432837
O	0.18963445	0.6501513	0.4675065
O	0.19083195	0.65326825	0.5943703
O	0.1914816	0.65090485	0.7177911
O	0.1907975	0.6504915	0.8451467
O	0.1914267	0.65344285	0.9681056
O	0.19052975	0.75301785	0.09359955
O	0.19017245	0.7496028	0.2184203
O	0.19111595	0.75220635	0.3442065
O	0.18906785	0.74873065	0.46846595
O	0.1924236	0.7277256	0.5978391
O	0.1905235	0.7525879	0.7192144
O	0.1908836	0.75168405	0.84295965
O	0.19187955	0.7527613	0.9685017
O	0.19469285	0.8543975	0.0921351
O	0.19298865	0.8502238	0.2176973
O	0.1948928	0.85157365	0.34365785
O	0.1941337	0.8537707	0.46962205
O	0.19359795	0.85068665	0.5936837
O	0.19212165	0.85109855	0.7196231
O	0.1929457	0.85296555	0.84378235
O	0.1909663	0.8514861	0.96913835
O	0.1926373	0.95200375	0.09454515
O	0.1939	0.9554648	0.21836735
O	0.19268845	0.9504038	0.34310625
O	0.19199415	0.95040315	0.4697151
O	0.19241105	0.95147405	0.5924702
O	0.1920334	0.9522217	0.71753275
O	0.1929561	0.9510297	0.84400575
O	0.1931578	0.95133675	0.96944625
O	0.29072205	0.05135935	0.09426095
O	0.2931305	0.0501697	0.22037055
O	0.2933095	0.05177045	0.3431656
O	0.2903974	0.0490283	0.469857
O	0.2908722	0.05119785	0.5932155
O	0.29058745	0.05052065	0.7192285
O	0.29193885	0.05208565	0.84610795
O	0.2909197	0.0510073	0.9688983
O	0.2916472	0.1514295	0.0938088
O	0.29187725	0.1502151	0.22027165
O	0.2912529	0.15059605	0.3450861
O	0.29100345	0.15204075	0.46829795
O	0.2918945	0.15143965	0.5929144
O	0.29341895	0.15187535	0.71719495
O	0.29044295	0.151167	0.8439042
O	0.29146475	0.1502847	0.97056305
O	0.29166275	0.2508845	0.0921879
O	0.29228	0.2520229	0.21898385
O	0.29387375	0.25444105	0.34375855
O	0.29420415	0.2489922	0.4686115
O	0.2913172	0.25033085	0.5930449
O	0.2904582	0.25442615	0.72024855
O	0.28929275	0.2539347	0.8422492
O	0.28948315	0.2529228	0.96822025
O	0.29172435	0.355717	0.0927006
O	0.2931922	0.35068835	0.2204247
O	0.29304175	0.35297505	0.34453185
O	0.29132985	0.34936265	0.46781175
O	0.29130835	0.35329915	0.5923624
O	0.2910137	0.35134585	0.7198366
O	0.2910922	0.34979185	0.84387835
O	0.29016255	0.34959775	0.96976365
O	0.2933881	0.45272715	0.09251135
O	0.29300845	0.45024185	0.2199981
O	0.291791	0.4520154	0.3438409
O	0.2921133	0.45168735	0.47097095
O	0.2908522	0.45164275	0.5941749
O	0.2904449	0.45185825	0.71947025
O	0.29107175	0.45322255	0.8441155
O	0.29147595	0.4505249	0.9694032
O	0.28957345	0.55121415	0.0942691
O	0.29216845	0.5524484	0.2177042
O	0.2926165	0.5509206	0.34291355
O	0.29208565	0.55014465	0.46790455
O	0.29037845	0.54948495	0.594241
O	0.2899197	0.5524576	0.7178745
O	0.29549115	0.5510081	0.841868
O	0.2905249	0.55178025	0.96980825
O	0.2900724	0.64957165	0.09325655
O	0.2897183	0.64995475	0.21935175
O	0.2936257	0.6522122	0.34407495
O	0.2899547	0.652282	0.4688458
O	0.29199625	0.6511897	0.5947711
O	0.2897264	0.65209695	0.7201847
O	0.29231275	0.6517298	0.84250035
O	0.29307245	0.64838625	0.9699471
O	0.29158105	0.7497858	0.0956851
O	0.29286065	0.75112695	0.2183102
O	0.2903483	0.7527708	0.34366025
O	0.29285155	0.75275925	0.4683928
O	0.29068545	0.7511376	0.5951235
O	0.29308135	0.75098875	0.7181259
O	0.2922727	0.75324585	0.84423775
O	0.2978785	0.73056595	0.9645314
O	0.2911625	0.85490045	0.09333765
O	0.29378155	0.85195015	0.2187318
O	0.29341215	0.8524599	0.34472595
O	0.29296375	0.8517652	0.4692155
O	0.29324645	0.8497369	0.5938071
O	0.2914448	0.8521289	0.7174875
O	0.29192095	0.8508636	0.843502
O	0.2913311	0.8530408	0.9687323
O	0.29325605	0.951897	0.0948413
O	0.2926326	0.9511598	0.2196827
O	0.2926756	0.9532437	0.3436273
O	0.293455	0.93952375	0.46568145
O	0.2916835	0.95200095	0.5937875
O	0.2918515	0.9516247	0.7181442
O	0.29367215	0.95080885	0.84340665
O	0.2939982	0.95391865	0.96808325
O	0.3906293	0.0502802	0.0932321
O	0.39219255	0.05218015	0.2199752
O	0.39295445	0.0526983	0.3433872
O	0.39182255	0.0498821	0.46768735
O	0.3922527	0.0517186	0.59245315
O	0.39157435	0.0505248	0.7174711
O	0.39298315	0.0488191	0.8444006
O	0.3934638	0.03134835	0.96860905
O	0.39217065	0.14806585	0.092684
O	0.393607	0.1501581	0.22027
O	0.39149475	0.1502822	0.34316335
O	0.3923692	0.14918205	0.46883425
O	0.3922667	0.15081195	0.5929584
O	0.3902251	0.14983325	0.71945735
O	0.39237145	0.1496833	0.846219
O	0.39447895	0.14682375	0.9686811
O	0.39202595	0.2545601	0.09478495
O	0.39283365	0.23090035	0.2184354
O	0.3900515	0.2510842	0.34373645
O	0.39177255	0.2536307	0.4691145
O	0.3931925	0.25249585	0.5946576
O	0.38863145	0.2510098	0.7189662
O	0.39062595	0.25219075	0.8452864
O	0.38896955	0.25222665	0.96804335
O	0.3907895	0.35171485	0.09379835
O	0.3921051	0.35261795	0.2179136
O	0.38839115	0.3508661	0.343817
O	0.3901965	0.35170915	0.4693044
O	0.3927541	0.35163405	0.5932458
O	0.39053355	0.34975455	0.7183716
O	0.3917835	0.3510177	0.8439911
O	0.39265375	0.3535588	0.96848035
O	0.3912682	0.45236065	0.0930358
O	0.3941554	0.4510497	0.2186499
O	0.39285205	0.4522012	0.3431948
O	0.3927346	0.45534565	0.46728605
O	0.39398345	0.45170035	0.59180285
O	0.3926142	0.45091795	0.7190813
O	0.3937381	0.45155345	0.84207155
O	0.3899598	0.45169565	0.96809785
O	0.39145975	0.5509935	0.0928592
O	0.39277175	0.55288765	0.21956485
O	0.3907156	0.5534007	0.34343515
O	0.3922261	0.55181495	0.46762895
O	0.3906351	0.54902145	0.5930961
O	0.3917267	0.5472534	0.7196063
O	0.39142485	0.5513866	0.8439852
O	0.39039115	0.552655	0.967323
O	0.39099	0.65362235	0.09353815
O	0.39331885	0.6501674	0.2203916
O	0.39125845	0.65120125	0.34287815
O	0.393093	0.64918555	0.4675573
O	0.38997815	0.64873905	0.59199085
O	0.39295085	0.6506001	0.7189758
O	0.39198365	0.6503886	0.84357685
O	0.39207275	0.65086185	0.97076385
O	0.3904175	0.7519077	0.0946127
O	0.39005	0.749738	0.21977965
O	0.39261035	0.7534248	0.3420242
O	0.38968925	0.75275765	0.46810905
O	0.39320265	0.7509485	0.59197685
O	0.3907202	0.75051665	0.7177744
O	0.3911423	0.75151825	0.84525675
O	0.39255055	0.750559	0.9686146
O	0.3919664	0.8502848	0.0948394
O	0.39302435	0.85033105	0.2188022
O	0.3927277	0.85295605	0.3436268
O	0.39396305	0.8531575	0.468221
O	0.39239675	0.85145925	0.5926138
O	0.39395135	0.8512136	0.7186419
O	0.39176575	0.8545871	0.84225055
O	0.39122005	0.8534095	0.9683204
O	0.39184105	0.95048145	0.0950465
O	0.39353805	0.9502155	0.21801815
O	0.39283475	0.9531865	0.3424076
O	0.392518	0.9527719	0.4675007
O	0.3933898	0.95351105	0.59355945
O	0.39028465	0.9533472	0.7188944
O	0.39242045	0.9509459	0.84274005
O	0.3930724	0.9504661	0.9680215
O	0.4961351	0.05460155	0.0952458
O	0.4933592	0.05086855	0.2195475
O	0.49249195	0.05262555	0.3427121
O	0.4901477	0.0511785	0.46765945
O	0.49027025	0.0532956	0.5941123
O	0.4921391	0.04890015	0.71671725
O	0.49120445	0.05076095	0.845762
O	0.49387145	0.03184795	0.9703859
O	0.49163865	0.1518939	0.09410545
O	0.49108015	0.15189475	0.2189051
O	0.4913751	0.15285065	0.34438055
O	0.4942919	0.15047815	0.46785015
O	0.4919786	0.1337779	0.59537875
O	0.4925132	0.15090985	0.7183408
O	0.49189875	0.1487824	0.84286145
O	0.49076235	0.1532352	0.9694859
O	0.48908565	0.2513403	0.09284065
O	0.49092195	0.25034	0.2180708
O	0.4923755	0.25252455	0.3431342
O	0.49108085	0.2552079	0.4694689
O	0.49154295	0.25420495	0.59148315
O	0.49214125	0.25292375	0.7178574
O	0.48987835	0.25365035	0.84423345
O	0.4919019	0.25304025	0.96743675
O	0.4918489	0.3530751	0.09463145
O	0.490986	0.3498765	0.2186853
O	0.49111265	0.35084355	0.34256685
O	0.4912478	0.3508462	0.46796755
O	0.490759	0.3500117	0.59232375
O	0.4923355	0.35230585	0.71910315
O	0.4907336	0.35106985	0.8431531
O	0.49489415	0.35334125	0.9691674
O	0.49166225	0.45232525	0.0927471
O	0.49239405	0.45443505	0.2198218
O	0.491152	0.44921965	0.3433327
O	0.49022975	0.45290305	0.4667163
O	0.4921017	0.45253425	0.59276865
O	0.4915669	0.4531635	0.71935965
O	0.49165175	0.45256205	0.84380105
O	0.4924988	0.4481734	0.96911975
O	0.49140005	0.55238265	0.09408385
O	0.4905716	0.55364675	0.21787455
O	0.49329535	0.5492543	0.3432449
O	0.49312315	0.5495166	0.46906755
O	0.49199695	0.5495737	0.59513335
O	0.49154085	0.55068075	0.72020685
O	0.49084895	0.54969085	0.84233205
O	0.4925741	0.55240635	0.96932795
O	0.4931441	0.6515516	0.09487725
O	0.49272505	0.6513013	0.22081945
O	0.49325455	0.64924505	0.3453434
O	0.4931993	0.6522804	0.4662759
O	0.49241605	0.6503246	0.592192
O	0.49376445	0.648965	0.71859015
O	0.49076725	0.64962925	0.8440038
O	0.4903302	0.65072495	0.96870805
O	0.4924692	0.750699	0.0925883
O	0.4911271	0.74883125	0.21937835
O	0.49191695	0.75063965	0.34258785
O	0.49052965	0.7540391	0.4688609
O	0.4919445	0.75006775	0.5932357
O	0.49017635	0.7521765	0.71835135
O	0.49342225	0.7503593	0.84401475
O	0.4915226	0.74921935	0.9679288
O	0.49206035	0.8529292	0.09382035
O	0.4936027	0.85203075	0.2196683
O	0.4915392	0.85166505	0.34239435
O	0.49095825	0.8516788	0.46790935
O	0.49255605	0.85242475	0.59353075
O	0.49232445	0.8530216	0.718158
O	0.492514	0.85086315	0.84439185
O	0.49085355	0.85177725	0.96889045
O	0.4923355	0.95071825	0.09435395
O	0.490643	0.95105455	0.21847515
O	0.4911364	0.9503822	0.34321615
O	0.49080625	0.95231145	0.46681085
O	0.49228525	0.94969745	0.59362365
O	0.49151555	0.94970375	0.7180037
O	0.492903	0.95236415	0.8430845
O	0.49275385	0.95292905	0.9687869
O	0.5907605	0.0326916	0.0904165
O	0.5926161	0.05130365	0.2176653
O	0.59038695	0.05355695	0.3444134
O	0.5906023	0.0509541	0.4683573
O	0.5910599	0.05315615	0.59330155
O	0.59137395	0.0514893	0.7216312
O	0.5942897	0.05171015	0.8451588
O	0.5922291	0.05094225	0.9711953
O	0.59281245	0.1487713	0.09429735
O	0.59374115	0.14879185	0.21880795
O	0.59347335	0.1496923	0.34326265
O	0.59291785	0.15315185	0.4694505
O	0.59214785	0.1515306	0.5932673
O	0.59332615	0.1508168	0.7180517
O	0.59332545	0.15191845	0.8441617
O	0.5914788	0.15183875	0.96967895
O	0.5904894	0.25112	0.09286185
O	0.5906427	0.25326535	0.2196556
O	0.59386525	0.25144055	0.34386295
O	0.5942563	0.2518973	0.4678467
O	0.59206295	0.2543766	0.5939681
O	0.5906681	0.2517413	0.7179259
O	0.59000145	0.25115155	0.84250745
O	0.5916182	0.2511539	0.97025575
O	0.58992745	0.35214855	0.09298695
O	0.5913834	0.3523765	0.2187173
O	0.59264155	0.3503812	0.3463379
O	0.59304125	0.3506141	0.46752575
O	0.5930712	0.35109835	0.5933491
O	0.5911322	0.35064865	0.7188048
O	0.59243295	0.3517208	0.8443944
O	0.5874161	0.35135	0.9690726
O	0.59148	0.45264255	0.0924328
O	0.59221125	0.4519591	0.2170062
O	0.59220565	0.4510161	0.34514565
O	0.59241235	0.45079235	0.4692614
O	0.59399295	0.45028505	0.59255755
O	0.5925853	0.44935975	0.7171954
O	0.59277335	0.45123415	0.84472325
O	0.59107865	0.45260425	0.96942755
O	0.5922944	0.5527073	0.0920054
O	0.59110405	0.55003595	0.2177275
O	0.59256015	0.5495275	0.3450465
O	0.59052485	0.54980745	0.46650025
O	0.59129465	0.55070995	0.59526935
O	0.5919497	0.5510537	0.71726
O	0.5917288	0.55033845	0.8444674
O	0.59079365	0.5532197	0.9681565
O	0.5914685	0.65161585	0.0952415
O	0.59312545	0.6515034	0.220663
O	0.59245775	0.64757525	0.34358985
O	0.5917384	0.6516217	0.46799725
O	0.5907534	0.64908805	0.59477745
O	0.59213485	0.6318887	0.72027095
O	0.5926313	0.6522797	0.84449165
O	0.59334095	0.65135615	0.96736645
O	0.5940258	0.7490215	0.09420315
O	0.5913736	0.75181115	0.21804375
O	0.5912022	0.7504847	0.34340185
O	0.59036215	0.74961725	0.4676415
O	0.5899869	0.74727925	0.59272625
O	0.59106885	0.7510965	0.7191952
O	0.5915452	0.74877165	0.84276155
O	0.5930949	0.7505184	0.96822915
O	0.59079925	0.8549034	0.0951362
O	0.59146975	0.8471239	0.2183484
O	0.5936147	0.8510357	0.34177925
O	0.5931556	0.8519655	0.46733965
O	0.5948669	0.8505752	0.5940824
O	0.59329495	0.85135615	0.71940855
O	0.59117705	0.8536022	0.8451628
O	0.59202435	0.85152845	0.96907405
O	0.59183775	0.95410675	0.09224205
O	0.591695	0.95063605	0.2198191
O	0.59328965	0.9517852	0.3435169
O	0.59055015	0.95280705	0.4682147
O	0.5922559	0.95080515	0.5916279
O	0.59097875	0.95195145	0.7193465
O	0.59304385	0.95202935	0.845587
O	0.5905521	0.95078785	0.9677382
O	0.6926545	0.0530767	0.0937682
O	0.6937481	0.05217015	0.21876165
O	0.69294415	0.0494212	0.34136605
O	0.69396365	0.0341314	0.46669385
O	0.6895486	0.0528896	0.59328535
O	0.69178735	0.0508361	0.7191524
O	0.6924113	0.0500614	0.8436043
O	0.6931077	0.05287845	0.9687957
O	0.69214665	0.1516351	0.09528755
O	0.69111275	0.1514831	0.21884295
O	0.69278115	0.152801	0.34376485
O	0.6928584	0.15447305	0.46566695
O	0.69005725	0.15103645	0.5944683
O	0.6918157	0.15259395	0.7192247
O	0.6933438	0.1486761	0.84419905
O	0.6890312	0.1504599	0.97150335
O	0.69176315	0.25157895	0.0935906
O	0.6920913	0.251262	0.2178955
O	0.6924746	0.2512519	0.34266835
O	0.6923514	0.25327275	0.46991815
O	0.6918782	0.2519785	0.5934547
O	0.69268855	0.2497876	0.71916695
O	0.69189775	0.2516549	0.8430441
O	0.69343015	0.2507528	0.9663105
O	0.69167355	0.3506241	0.093413
O	0.69152615	0.3506523	0.22020945
O	0.69131985	0.35306455	0.34336195
O	0.6917716	0.34992925	0.46766195
O	0.69280945	0.35170375	0.59323285
O	0.68930335	0.3512188	0.71715645
O	0.69172695	0.352821	0.8436395
O	0.69322945	0.35272795	0.96866815
O	0.69047445	0.4520296	0.09221175
O	0.6933105	0.451041	0.22034135
O	0.6928138	0.45113095	0.34190295
O	0.69069525	0.45231465	0.4698351
O	0.6933719	0.45166525	0.59333955
O	0.6915559	0.44909375	0.7175209
O	0.6912621	0.45184495	0.84378
O	0.69149245	0.45191635	0.96946235
O	0.6919464	0.54995165	0.0941854
O	0.6931017	0.55249005	0.21967465
O	0.6901298	0.5533617	0.34460645
O	0.6907648	0.5521494	0.47018455
O	0.69219795	0.55297815	0.59464795
O	0.6917562	0.55097455	0.71790415
O	0.6941445	0.55014835	0.8427619
O	0.69209035	0.55086575	0.9675336
O	0.69170765	0.6513766	0.0943712
O	0.6935657	0.65030445	0.2188334
O	0.6923759	0.6505646	0.3407709
O	0.6923509	0.6487166	0.46858895
O	0.69617855	0.63120705	0.5963196
O	0.69069845	0.6521233	0.71782495
O	0.69563275	0.65083515	0.8447783
O	0.69542085	0.6514841	0.9679327
O	0.69295445	0.7497743	0.0925226
O	0.68969165	0.7522846	0.21778935
O	0.69224645	0.7497777	0.34519155
O	0.69343705	0.7516251	0.46879945
O	0.69282555	0.75245405	0.5940091
O	0.69381915	0.7519793	0.7206557
O	0.6933666	0.75420415	0.8452754
O	0.6924111	0.75263055	0.9688584
O	0.69272515	0.85228315	0.09469765
O	0.6935566	0.8525382	0.2203228
O	0.6900222	0.8500097	0.3431278
O	0.6937086	0.85393875	0.469438
O	0.69252845	0.84835135	0.5945877
O	0.6913825	0.8537674	0.71977375
O	0.6919921	0.8530113	0.8446475
O	0.69036655	0.8521547	0.97107315
O	0.6919593	0.9515383	0.09378715
O	0.6928639	0.9546074	0.2168361
O	0.69218195	0.9503555	0.34301975
O	0.6916164	0.9544622	0.4684149
O	0.69005925	0.9538191	0.5951161
O	0.69183815	0.9518995	0.71895725
O	0.69069315	0.9523002	0.84348275
O	0.6905773	0.9514915	0.9682939
O	0.79380835	0.04969595	0.0942855
O	0.79045435	0.05111895	0.2177415
O	0.7932713	0.0522492	0.3425574
O	0.7906067	0.05160385	0.46740175
O	0.79118365	0.0526799	0.5932531
O	0.7915767	0.05173425	0.71876455
O	0.79181175	0.05077415	0.8433165
O	0.79159455	0.04973715	0.97027735
O	0.79284535	0.15301165	0.09381355
O	0.79180185	0.152031	0.2184794
O	0.79217055	0.15046955	0.3421111
O	0.7910813	0.15260725	0.4672536
O	0.79200525	0.15147705	0.5935344
O	0.7935421	0.1534335	0.7192535
O	0.79281855	0.15213105	0.84302435
O	0.79394555	0.15263015	0.9690498
O	0.79235295	0.2521535	0.0934825
O	0.7906475	0.2499495	0.2204313
O	0.79422895	0.251056	0.3445738
O	0.79137825	0.25089275	0.4688951
O	0.79144685	0.2523631	0.59476685
O	0.79201765	0.2478501	0.718788
O	0.7924564	0.2521552	0.84211955
O	0.79286965	0.2512478	0.9688038
O	0.79268045	0.35171015	0.0929821
O	0.79402765	0.3520284	0.2200589
O	0.79212655	0.35212785	0.34374745
O	0.79238605	0.34967545	0.46754905
O	0.79363865	0.3521835	0.5928738
O	0.79156265	0.35129765	0.718286
O	0.793223	0.35097775	0.84296125
O	0.7916538	0.35051295	0.96831425
O	0.79303195	0.45417065	0.0935462
O	0.7928829	0.4495708	0.21832635
O	0.79256495	0.45043925	0.3433452
O	0.7910476	0.45054895	0.4689268
O	0.7922572	0.4509888	0.5924728
O	0.79171105	0.4493125	0.71787685
O	0.79344025	0.4519749	0.8455495
O	0.79328635	0.450749	0.96868115
O	0.79149735	0.5535975	0.09281835
O	0.7911016	0.5522101	0.21915785
O	0.7914152	0.55254655	0.34126395
O	0.7934294	0.5520524	0.4665183
O	0.79261995	0.55035225	0.59444725
O	0.7922936	0.55263205	0.71672205
O	0.79189595	0.5493133	0.84300435
O	0.7917524	0.55099915	0.96834515
O	0.7916217	0.6526509	0.0926399
O	0.79003295	0.6513505	0.2173114
O	0.79128895	0.6492607	0.3454344
O	0.79295565	0.65026705	0.46850245
O	0.79006725	0.6527968	0.59183475
O	0.79114105	0.6529638	0.71867785
O	0.7919761	0.6499841	0.84401485
O	0.7906581	0.6518969	0.96862475
O	0.79147505	0.75102085	0.0935847
O	0.79276275	0.75085315	0.2158915
O	0.7922449	0.75128565	0.34333715
O	0.79300935	0.75063705	0.46716825
O	0.7920535	0.75038865	0.5946777
O	0.7912134	0.7508415	0.71918155
O	0.7911337	0.75216655	0.84399745
O	0.79251265	0.7500287	0.9703164
O	0.7940258	0.85244185	0.0936045
O	0.7915761	0.8522644	0.21672445
O	0.79074205	0.8544342	0.34310035
O	0.79023055	0.851177	0.4692332
O	0.79163745	0.85333205	0.59428905
O	0.79089565	0.85113445	0.71702325
O	0.79271195	0.85329105	0.8443258
O	0.7906035	0.8504816	0.96756845
O	0.79111525	0.9471915	0.09271535
O	0.79205985	0.95069645	0.21970365
O	0.79147575	0.95053495	0.34453525
O	0.7923435	0.95276755	0.4677731
O	0.7904577	0.9525826	0.59484915
O	0.79026275	0.95159255	0.7186144
O	0.790508	0.9514175	0.84438105
O	0.79160605	0.9505832	0.96885545
O	0.88899875	0.0518005	0.0935337
O	0.89162595	0.05308055	0.2170738
O	0.8913887	0.0514527	0.3428946
O	0.89050915	0.0506567	0.46897515
O	0.8905923	0.05166745	0.5934312
O	0.8923834	0.0505193	0.71822165
O	0.89283235	0.0497805	0.8446586
O	0.89309385	0.05263805	0.9690224
O	0.89221495	0.1531249	0.0941058
O	0.89052265	0.15055705	0.2182982
O	0.8916992	0.1468027	0.3436266
O	0.8921767	0.15221245	0.4677757
O	0.89109675	0.15243135	0.5922828
O	0.89309095	0.15377235	0.7192749
O	0.89330395	0.15176325	0.8438847
O	0.89113295	0.15283535	0.968738
O	0.89136245	0.252231	0.0916163
O	0.8917263	0.25182865	0.2180834
O	0.8915763	0.25148875	0.3444308
O	0.8919708	0.25277335	0.4696409
O	0.89206555	0.2524665	0.5938698
O	0.8917836	0.25358125	0.71932465
O	0.8911937	0.2528517	0.8438647
O	0.89133345	0.25153315	0.96950485
O	0.8922375	0.35221935	0.0947777
O	0.8916321	0.35126535	0.21869075
O	0.89119475	0.35116995	0.3427912
O	0.8925398	0.35167955	0.4689158
O	0.89103595	0.3523224	0.5931174
O	0.8907114	0.3521782	0.71766475
O	0.8917057	0.35142385	0.8425408
O	0.89220175	0.35111845	0.9680974
O	0.89203535	0.4521852	0.0922481
O	0.89186775	0.45240375	0.21754385
O	0.89266085	0.452235	0.3442018
O	0.8913303	0.44915715	0.4696535
O	0.89316335	0.4487485	0.59674425
O	0.893495	0.44929225	0.71992595
O	0.89235205	0.4513773	0.842528
O	0.8914054	0.4519727	0.96991015
O	0.8916469	0.5530328	0.0946681
O	0.8916459	0.52973495	0.2214972
O	0.8909627	0.5523903	0.3432293
O	0.88978195	0.5529677	0.46824605
O	0.8918776	0.55176265	0.59444145
O	0.89226395	0.55093405	0.7196326
O	0.89125675	0.55190305	0.84397875
O	0.8916921	0.5498964	0.96883895
O	0.8912851	0.6505881	0.09196985
O	0.8907695	0.64849725	0.2176566
O	0.89229145	0.65125595	0.34352665
O	0.89055165	0.6508443	0.46749085
O	0.8936505	0.6514069	0.59377915
O	0.893296	0.6513963	0.7191407
O	0.8936007	0.65004255	0.84511735
O	0.89086395	0.6531152	0.9690662
O	0.89070905	0.7522447	0.0940928
O	0.89160515	0.75150295	0.21960375
O	0.89137935	0.75051595	0.34310895
O	0.8942584	0.75022105	0.46940485
O	0.8925316	0.7517931	0.594048
O	0.89083125	0.751792	0.7201134
O	0.89133515	0.75201415	0.84371195
O	0.8922994	0.7528979	0.96749015
O	0.8909722	0.8527891	0.0938283
O	0.8916385	0.85082535	0.2190453
O	0.8920383	0.85202125	0.3434823
O	0.8909953	0.85372575	0.46763845
O	0.8934949	0.8485294	0.5935997
O	0.89164035	0.85281965	0.7197012
O	0.8922571	0.8486016	0.8451569
O	0.89192735	0.85217995	0.96895335
O	0.89090955	0.9519764	0.0935136
O	0.89171055	0.94815085	0.2164092
O	0.8916817	0.95227935	0.3416433
O	0.89108515	0.9523123	0.4693016
O	0.89002305	0.95223085	0.59403005
O	0.8905242	0.95148005	0.71875295
O	0.8908711	0.93043625	0.84220945
O	0.89187995	0.95360595	0.96922815
O	0.9921875	0.0522357	0.09402675
O	0.99022595	0.05181205	0.2166023
O	0.98978435	0.05191595	0.34372945
O	0.9928655	0.05309335	0.46758555
O	0.98912605	0.0520319	0.59418205
O	0.99241775	0.05066995	0.71914075
O	0.991937	0.0501504	0.84377545
O	0.9919698	0.0512185	0.9705044
O	0.9907501	0.1524866	0.0924983
O	0.99189725	0.1512548	0.21826925
O	0.99149075	0.15221645	0.34270405
O	0.99137745	0.15113105	0.4675905
O	0.99147875	0.14918595	0.59263665
O	0.99150565	0.15198415	0.71844205
O	0.9927556	0.15106855	0.84465905
O	0.99301695	0.1543034	0.96916425
O	0.9914599	0.2513028	0.09448875
O	0.99296035	0.23269945	0.2153451
O	0.9913606	0.25272385	0.34498675
O	0.9912578	0.25272455	0.4687874
O	0.99315975	0.2515615	0.59429525
O	0.9919679	0.25199795	0.7186787
O	0.9911721	0.2520559	0.84486885
O	0.9931726	0.2532741	0.96759355
O	0.99230665	0.351594	0.09383715
O	0.99519635	0.34903765	0.21780015
O	0.9928639	0.3513256	0.34351935
O	0.99185805	0.35041315	0.47035915
O	0.99506055	0.35226715	0.59278375
O	0.99072495	0.35132535	0.7182188
O	0.9922369	0.3520614	0.8444545
O	0.992955	0.35052315	0.96824635
O	0.9926039	0.45324325	0.0936327
O	0.9925537	0.4516083	0.2188503
O	0.9918503	0.45203245	0.3435741
O	0.9916806	0.4528854	0.46985625
O	0.99226825	0.4517529	0.593094
O	0.99236645	0.4514533	0.71928025
O	0.99148605	0.4517465	0.8445199
O	0.99137725	0.45128915	0.96912245
O	0.9921659	0.5532461	0.0928256
O	0.99184245	0.55391655	0.21876075
O	0.99058475	0.5519787	0.34364305
O	0.99146895	0.5522542	0.46794005
O	0.9912104	0.54960395	0.5938469
O	0.99241635	0.5500338	0.71823255
O	0.9921705	0.54998265	0.84463705
O	0.9900471	0.5528402	0.9697536
O	0.9933642	0.6500304	0.09179065
O	0.99270345	0.65186265	0.2187654
O	0.9913346	0.652138	0.3432173
O	0.992355	0.6521912	0.4681762
O	0.9891336	0.65087525	0.5926041
O	0.9913142	0.65189205	0.71863755
O	0.99162855	0.65221905	0.8443481
O	0.99283985	0.6504644	0.9657869
O	0.9934585	0.75095435	0.0924617
O	0.99207265	0.75213655	0.21954625
O	0.99200165	0.7503174	0.34434455
O	0.99297005	0.7505141	0.4706164
O	0.99030475	0.7509977	0.59468645
O	0.9924423	0.75046265	0.7195468
O	0.99226125	0.7529844	0.84408115
O	0.9911351	0.75255355	0.9672905
O	0.99129495	0.85095515	0.094166
O	0.98978215	0.85000165	0.2173519
O	0.9911928	0.84955175	0.3426433
O	0.99242935	0.85179705	0.4677307
O	0.99277495	0.85236685	0.59241465
O	0.9937708	0.8512278	0.7180645
O	0.99549745	0.84660185	0.8434654
O	0.9938091	0.85184945	0.9686303
O	0.98966205	0.95172715	0.0951038
O	0.99219535	0.95317	0.2192085
O	0.99225315	0.9535277	0.345752
O	0.9918028	0.9537813	0.46920045
O	0.99190545	0.9513706	0.59262585
O	0.99371665	0.95249205	0.7205221
O	0.9924081	0.9521472	0.84329385
O	0.9910022	0.9529722	0.9678811
O	0.04316265	0.09768265	0.0304658
O	0.04156215	0.09936145	0.15609815
O	0.041574	0.0969905	0.2810224
O	0.04042305	0.09679695	0.4060267
O	0.04423905	0.0957921	0.5303172
O	0.04329545	0.0977207	0.6565933
O	0.043293	0.09778465	0.7797591
O	0.04152275	0.0985565	0.9066191
O	0.04034945	0.1979722	0.03033995
O	0.04329035	0.1987618	0.1566714
O	0.0410429	0.1981447	0.2801182
O	0.04155335	0.2001973	0.4073117
O	0.0417423	0.19775465	0.53084055
O	0.04170695	0.1979307	0.655382
O	0.0434694	0.19868175	0.7816091
O	0.0428254	0.19875285	0.90772045
O	0.04241235	0.2974337	0.03163235
O	0.04321305	0.2979262	0.155894
O	0.0425281	0.2993564	0.2815584
O	0.0429159	0.2990686	0.40597715
O	0.04112225	0.29754505	0.532272
O	0.041104	0.2979644	0.6583326
O	0.0412163	0.2970245	0.7813174
O	0.04192735	0.29892	0.90721525
O	0.0436736	0.3980934	0.0302335
O	0.04315675	0.4005825	0.15444995
O	0.0445595	0.3965743	0.2811423
O	0.04194605	0.40126205	0.407701
O	0.0421653	0.3958027	0.53105595
O	0.04256535	0.39850195	0.6557523
O	0.0438029	0.397859	0.780243
O	0.0422843	0.3996046	0.9046689
O	0.0443028	0.49881205	0.03237505
O	0.04022805	0.49823785	0.15558295
O	0.04031505	0.49918855	0.2808003
O	0.0403681	0.49862845	0.4079401
O	0.04233725	0.49997315	0.53303135
O	0.0429164	0.50008025	0.65584755
O	0.04259265	0.49975675	0.78002295
O	0.04212835	0.49846245	0.90620775
O	0.0404432	0.59707825	0.03190495
O	0.0402223	0.59863395	0.15492585
O	0.0331953	0.61634185	0.28414515
O	0.04519155	0.6005765	0.40554055
O	0.04355345	0.5982999	0.53349645
O	0.04250185	0.59924235	0.6560469
O	0.0422171	0.5972896	0.77977555
O	0.04190295	0.59835155	0.90626745
O	0.04163815	0.6985514	0.0313456
O	0.0412355	0.6989947	0.15756415
O	0.0407767	0.69955095	0.2801298
O	0.0423339	0.7010067	0.4078915
O	0.04303245	0.70075215	0.53195405
O	0.04016705	0.69918105	0.65369485
O	0.04220875	0.6982317	0.78341705
O	0.04162775	0.6983976	0.9061109
O	0.04190715	0.7978365	0.03112845
O	0.04317875	0.80229905	0.15622835
O	0.04043615	0.7993432	0.2814191
O	0.04394635	0.79851095	0.40683775
O	0.04182325	0.7993669	0.53363255
O	0.043623	0.7989464	0.656869
O	0.04358975	0.8000656	0.7817947
O	0.0419492	0.79678185	0.90596175
O	0.0436427	0.8988331	0.03207
O	0.0430926	0.8976424	0.1577297
O	0.04248365	0.89903135	0.2795765
O	0.044031	0.89743075	0.4065491
O	0.04171745	0.89986535	0.53049305
O	0.0446731	0.89835575	0.6554555
O	0.04166585	0.8981185	0.78276785
O	0.04309835	0.89721175	0.9055373
O	0.0401229	0.9981002	0.03035505
O	0.04286145	0.00101865	0.15533605
O	0.04216865	0.9995857	0.2827906
O	0.0427643	0.9977085	0.40855015
O	0.04410705	0.99976095	0.53112965
O	0.03444775	0.02070675	0.65665965
O	0.04044415	0.9948816	0.78204995
O	0.04277895	0.9997841	0.9061605
O	0.1435299	0.0961496	0.03125225
O	0.1436195	0.1018078	0.1560428
O	0.1432636	0.09747675	0.28231485
O	0.1418996	0.1003812	0.40565955
O	0.1424715	0.0994154	0.53187655
O	0.14152335	0.09902985	0.65717595
O	0.1436771	0.09706275	0.78126165
O	0.14118745	0.09762085	0.90629635
O	0.1421074	0.2003951	0.0317265
O	0.140891	0.19978155	0.1560384
O	0.14449635	0.19938625	0.2809444
O	0.1371206	0.2224248	0.4007624
O	0.14265305	0.2002141	0.5303962
O	0.1416392	0.199691	0.6557816
O	0.14315305	0.1940059	0.78014
O	0.14158625	0.19994915	0.90530265
O	0.14392025	0.3009706	0.0300383
O	0.14179005	0.29975615	0.15594
O	0.1426711	0.30274045	0.2809719
O	0.14068795	0.2977279	0.40710085
O	0.1431302	0.30020365	0.531348
O	0.143461	0.3013554	0.6557494
O	0.14319585	0.30122995	0.7805375
O	0.1427434	0.29835195	0.90594755
O	0.1412848	0.39808145	0.03088115
O	0.14183235	0.39945735	0.15605105
O	0.14348755	0.39990765	0.282109
O	0.1412035	0.3991183	0.4069273
O	0.1428029	0.398496	0.53143585
O	0.14179135	0.3981281	0.6562074
O	0.1427429	0.4010995	0.78199145
O	0.142728	0.40004005	0.9066763
O	0.14478395	0.5000589	0.0330783
O	0.1412011	0.4982251	0.15506385
O	0.143289	0.49602015	0.28108515
O	0.14100565	0.49774745	0.40579345
O	0.14271835	0.4976607	0.5323428
O	0.1407568	0.4971808	0.65598865
O	0.14334215	0.500505	0.7815539
O	0.14318065	0.5010549	0.9042863
O	0.1397298	0.59912475	0.03129345
O	0.14225625	0.5996321	0.15512155
O	0.14209005	0.61832075	0.28478175
O	0.14445955	0.59810965	0.4072737
O	0.14293265	0.5987056	0.5296936
O	0.142335	0.5993361	0.65545035
O	0.14408085	0.60111135	0.7810646
O	0.1425436	0.59668345	0.9053671
O	0.14102385	0.6985379	0.0312775
O	0.14269915	0.70222905	0.1546279
O	0.14046115	0.69898255	0.2813789
O	0.14320275	0.6974859	0.40835465
O	0.145758	0.69906775	0.532867
O	0.14341715	0.7006034	0.65628965
O	0.143583	0.69947185	0.7806712
O	0.1403544	0.70088895	0.90728125
O	0.1426051	0.7964942	0.0312024
O	0.1428981	0.79783725	0.15305585
O	0.1459328	0.7981645	0.28194115
O	0.14076015	0.79769605	0.406375
O	0.14351375	0.79949815	0.53240965
O	0.1440989	0.7986056	0.65639375
O	0.1407595	0.79758465	0.78172995
O	0.14133985	0.79951235	0.9069657
O	0.14303855	0.89675515	0.0313997
O	0.1425161	0.89857195	0.1567037
O	0.1429548	0.8974897	0.28054585
O	0.1429167	0.89946515	0.40571865
O	0.1424048	0.89869375	0.5304442
O	0.14348425	0.8990505	0.65568905
O	0.1437141	0.8989408	0.78270695
O	0.1422469	0.897863	0.90467995
O	0.1417647	0.99873205	0.03043265
O	0.14138105	0.9976242	0.1540332
O	0.1405956	0.99929	0.28208885
O	0.1409124	0.9982794	0.40648915
O	0.1415153	0.0007177	0.5319676
O	0.1430057	0.9974641	0.65740045
O	0.1428722	0.9970355	0.77825505
O	0.141779	0.9990833	0.90397685
O	0.2430311	0.0976578	0.03213905
O	0.2406924	0.09637285	0.15618795
O	0.2427942	0.0957026	0.2812636
O	0.2420351	0.0993712	0.4054746
O	0.2426353	0.09760395	0.5308946
O	0.24247835	0.0972307	0.65738815
O	0.24276535	0.10137115	0.7801881
O	0.24092955	0.09782095	0.90564
O	0.24210805	0.1968898	0.03338005
O	0.24388465	0.20061665	0.1578286
O	0.243925	0.19717955	0.28073145
O	0.24379565	0.1990814	0.4064275
O	0.2413072	0.198712	0.53015885
O	0.2404032	0.201013	0.6567864
O	0.2398457	0.19973025	0.78078605
O	0.24112205	0.19936045	0.90569225
O	0.2429348	0.2996717	0.0322878
O	0.24322345	0.30434225	0.15792505
O	0.24424985	0.2991055	0.28206155
O	0.24236705	0.29864825	0.4047329
O	0.2418809	0.30192635	0.5332301
O	0.24306385	0.29776915	0.6549702
O	0.243647	0.29912835	0.78137815
O	0.2413203	0.3010704	0.9080801
O	0.2424971	0.39807305	0.03007145
O	0.24330105	0.39942285	0.1554428
O	0.24511355	0.41825005	0.28661695
O	0.2417051	0.4007037	0.40624905
O	0.24420005	0.4008228	0.53054085
O	0.24411385	0.39918545	0.6552817
O	0.2413167	0.39874225	0.78142525
O	0.2413433	0.3982693	0.90486725
O	0.2408544	0.4994895	0.02875915
O	0.2427891	0.49588025	0.15498455
O	0.243406	0.49708215	0.2803911
O	0.24249295	0.49619325	0.4070293
O	0.24163705	0.4990501	0.5321114
O	0.24311255	0.49510695	0.65694235
O	0.245362	0.4972764	0.7796556
O	0.241752	0.4983884	0.9062104
O	0.2417957	0.6013113	0.03096095
O	0.2442249	0.59811895	0.15560055
O	0.2425501	0.6014223	0.280107
O	0.24414825	0.5991246	0.4037651
O	0.24200935	0.60029435	0.5317473
O	0.2426071	0.5995249	0.6562737
O	0.24213385	0.5990844	0.7826056
O	0.2442503	0.5981838	0.90650165
O	0.2437294	0.6978365	0.0330838
O	0.24518025	0.6982629	0.1566096
O	0.2404732	0.6975295	0.2799493
O	0.241855	0.70016605	0.4050814
O	0.24524645	0.7150482	0.5285797
O	0.24306165	0.6968311	0.65649455
O	0.2430467	0.700497	0.7798105
O	0.2430323	0.69897195	0.9068944
O	0.2419665	0.7973538	0.03092385
O	0.2406064	0.79904165	0.15688985
O	0.2427305	0.79835535	0.280672
O	0.24429985	0.79983705	0.4082312
O	0.2456574	0.79851445	0.5322015
O	0.24365355	0.79697305	0.6560258
O	0.2442979	0.7979982	0.78221265
O	0.2445565	0.8004299	0.90532235
O	0.24224055	0.90033065	0.03149265
O	0.24289675	0.899599	0.1566559
O	0.24412525	0.91886165	0.28728675
O	0.24480775	0.8996622	0.4065857
O	0.24398165	0.8996764	0.5320722
O	0.2449194	0.8990748	0.6559386
O	0.241908	0.89753865	0.7810448
O	0.24239275	0.89893965	0.9075339
O	0.24089915	0.99794925	0.03274245
O	0.24366545	0.99991205	0.15625075
O	0.24558445	0.99800615	0.28168725
O	0.24415495	0.99636395	0.4069743
O	0.244726	0.99877155	0.5318119
O	0.2439547	0.9995711	0.65344975
O	0.24266145	0.9980303	0.7810616
O	0.24244425	0.99647725	0.9067965
O	0.3416854	0.09966585	0.030948
O	0.34050195	0.0969795	0.15564845
O	0.34498515	0.1014348	0.28228685
O	0.34432545	0.098364	0.40782825
O	0.34140575	0.0996524	0.5326411
O	0.34190625	0.096163	0.65728025
O	0.34289825	0.0975325	0.7803231
O	0.34361155	0.09794665	0.9081036
O	0.3416988	0.1972616	0.0308043
O	0.3442428	0.2003335	0.1548428
O	0.34093575	0.2001048	0.28137955
O	0.34383935	0.2012741	0.4053133
O	0.34295385	0.19938455	0.5310043
O	0.3432835	0.1967958	0.65695125
O	0.3405985	0.2004679	0.7821683
O	0.34104415	0.19828915	0.90602335
O	0.3423854	0.29780725	0.03317875
O	0.34205625	0.29757	0.1581131
O	0.3431987	0.2989098	0.28014655
O	0.34497035	0.321305	0.408533
O	0.34242995	0.29845545	0.5305105
O	0.34294935	0.29821115	0.6570592
O	0.34380845	0.300365	0.7809418
O	0.34487585	0.29967835	0.90546515
O	0.3418689	0.4024705	0.03182075
O	0.3420474	0.39836525	0.1568155
O	0.342506	0.39990005	0.2795889
O	0.34262535	0.4000617	0.40529875
O	0.3440987	0.3983601	0.5298694
O	0.34180065	0.39813935	0.6557344
O	0.34264815	0.39830265	0.7796699
O	0.34309145	0.39984575	0.90525825
O	0.3418984	0.4962676	0.02972315
O	0.3445153	0.4996994	0.15568705
O	0.34228005	0.50032305	0.280194
O	0.3434019	0.4982373	0.40662295
O	0.3421333	0.4989418	0.53256955
O	0.3410609	0.49688895	0.6558179
O	0.34387105	0.4957899	0.7819504
O	0.34080005	0.498079	0.9062894
O	0.3445425	0.59890455	0.03158335
O	0.3449629	0.5982772	0.1560311
O	0.34093725	0.5990948	0.28153095
O	0.3440652	0.59881655	0.406621
O	0.34530975	0.59913205	0.53109735
O	0.3442237	0.6001752	0.65711155
O	0.3414962	0.59876535	0.7807119
O	0.34608275	0.59823585	0.9061651
O	0.3414068	0.7009111	0.0319157
O	0.3399905	0.69607645	0.15675695
O	0.3418548	0.69694525	0.28172885
O	0.34422815	0.69991445	0.40680485
O	0.3411718	0.69921875	0.53044835
O	0.3427043	0.69546175	0.65710585
O	0.34259085	0.70027295	0.7792339
O	0.3380632	0.69646405	0.90498185
O	0.3438998	0.8008032	0.0317815
O	0.34146815	0.80132145	0.15571225
O	0.34255375	0.79689135	0.2813979
O	0.3435443	0.8013767	0.40515175
O	0.3423513	0.7979045	0.52980265
O	0.34339245	0.79963355	0.6562438
O	0.34123155	0.8007152	0.7804023
O	0.34344305	0.79817135	0.90452695
O	0.343332	0.89931735	0.0304746
O	0.34183105	0.8970312	0.1546409
O	0.3428077	0.89858625	0.28271265
O	0.34235385	0.90111885	0.40355255
O	0.34186725	0.8979861	0.5323606
O	0.34292195	0.8995564	0.6565532
O	0.3407618	0.89792045	0.78254045
O	0.34396315	0.90018675	0.90854435
O	0.34147555	0.99995955	0.0307415
O	0.3437655	0.9975672	0.15742065
O	0.3435739	0.0002672	0.28050675
O	0.34209535	0.9978883	0.4055022
O	0.3427775	0.99464835	0.5311523
O	0.34228135	0.9991234	0.65692955
O	0.34203185	0.00025165	0.7832123
O	0.3419488	0.9980054	0.90591825
O	0.44228545	0.09915995	0.0322513
O	0.4435008	0.0991721	0.15593655
O	0.4438629	0.0975498	0.28077565
O	0.44203185	0.0974975	0.4055751
O	0.44061845	0.1003448	0.52942625
O	0.44153215	0.0989525	0.65382895
O	0.44338105	0.09772015	0.7811059
O	0.44262805	0.10026055	0.9055835
O	0.44159865	0.19619605	0.03111245
O	0.44321325	0.19969895	0.15802635
O	0.4408863	0.1992047	0.28272465
O	0.4419208	0.19629245	0.4063779
O	0.44354505	0.1977931	0.53091945
O	0.4409815	0.19794835	0.6552131
O	0.44101225	0.19923415	0.7799093
O	0.4429865	0.1991849	0.90600395
O	0.44426415	0.2999996	0.02982055
O	0.44324	0.2992118	0.15687205
O	0.4391885	0.2985284	0.2802169
O	0.44368575	0.29809325	0.4065486
O	0.4428798	0.2968792	0.53185935
O	0.44158655	0.2979085	0.6542301
O	0.44310145	0.29962055	0.78022975
O	0.4458275	0.2995965	0.90791475
O	0.4450369	0.3972471	0.0299632
O	0.442822	0.4002614	0.15616855
O	0.4436774	0.3969901	0.28022075
O	0.44364595	0.39957575	0.4064376
O	0.4404467	0.39659025	0.53202105
O	0.4430967	0.39962625	0.65545025
O	0.4437533	0.39844005	0.78058735
O	0.4428083	0.3980113	0.90527655
O	0.44271655	0.49809105	0.03093585
O	0.4422648	0.50051365	0.1566927
O	0.4431589	0.4965261	0.2800492
O	0.4444443	0.4993695	0.40728155
O	0.44349445	0.49894715	0.5316977
O	0.4426721	0.49869185	0.65684035
O	0.444367	0.49916475	0.7809139
O	0.442533	0.5009029	0.9065421
O	0.4443845	0.5975951	0.0318363
O	0.4442757	0.5976114	0.1557036
O	0.4424222	0.59953295	0.28239215
O	0.4436629	0.5970074	0.40495165
O	0.442613	0.59530295	0.5318279
O	0.4403304	0.59891375	0.6577496
O	0.4438984	0.5990772	0.77942105
O	0.44273985	0.59853375	0.90728085
O	0.4415743	0.6995824	0.0301626
O	0.4437391	0.6996752	0.1574692
O	0.44150445	0.70082815	0.28102565
O	0.44415495	0.6968421	0.40508285
O	0.4435897	0.7008371	0.53068165
O	0.4433095	0.6988285	0.65530755
O	0.44327035	0.6980847	0.78084395
O	0.44126095	0.70085625	0.90519725
O	0.4432929	0.80017545	0.031414
O	0.44251935	0.79794185	0.1551571
O	0.44397685	0.79780315	0.28134205
O	0.44405335	0.8000375	0.4040395
O	0.44039035	0.80060875	0.52942745
O	0.4419045	0.80061815	0.6560751
O	0.4453711	0.8015828	0.7826444
O	0.44258915	0.79933575	0.90562625
O	0.4410693	0.89899095	0.03138165
O	0.44480475	0.90021775	0.15658375
O	0.4419074	0.90158085	0.28293995
O	0.44118675	0.900215	0.40797585
O	0.44283205	0.90092715	0.53105005
O	0.44317695	0.9009023	0.65501425
O	0.44545545	0.8996234	0.78202795
O	0.44306575	0.89888715	0.9064968
O	0.4436983	0.9992175	0.03028335
O	0.4424135	0.99953505	0.15568865
O	0.44410305	0.00012405	0.28158895
O	0.4425108	0.99918675	0.40633395
O	0.442933	0.99964375	0.52865505
O	0.44427275	0.9979561	0.65664105
O	0.4411824	0.99991965	0.78366775
O	0.4413588	0.0001423	0.90626515
O	0.5419377	0.0958363	0.0322964
O	0.54207255	0.09652585	0.154542
O	0.5431019	0.09888315	0.28148895
O	0.5439758	0.09874895	0.40557275
O	0.54245235	0.0986349	0.53010555
O	0.5438559	0.09771405	0.6548927
O	0.54395575	0.1001205	0.7806769
O	0.541998	0.09879925	0.9071982
O	0.54359775	0.2001289	0.0305014
O	0.54143075	0.1998481	0.15796295
O	0.5436517	0.19849305	0.28138125
O	0.5403797	0.1983972	0.4070169
O	0.5420631	0.20116235	0.53195825
O	0.5434429	0.19941325	0.6564062
O	0.5416484	0.1985068	0.7823556
O	0.5415402	0.1990951	0.9076707
O	0.5441317	0.2993807	0.02953325
O	0.5419167	0.2987432	0.1572715
O	0.5422021	0.29833595	0.2828237
O	0.5422779	0.29936605	0.40459305
O	0.5440777	0.2993232	0.5324034
O	0.5413353	0.297807	0.65344265
O	0.54423935	0.2987808	0.781155
O	0.5428453	0.30101345	0.9055848
O	0.5429595	0.40139495	0.0315397
O	0.5437753	0.3976473	0.15494165
O	0.5425387	0.39775965	0.2819783
O	0.54328665	0.4020773	0.40785945
O	0.54310125	0.39781435	0.53168775
O	0.5424394	0.3990229	0.65426645
O	0.5417107	0.39844825	0.78070685
O	0.54192465	0.39720935	0.90735695
O	0.54366195	0.49969805	0.02938675
O	0.54403745	0.4997652	0.15704515
O	0.54316665	0.5011743	0.2830384
O	0.54133725	0.49871495	0.4058522
O	0.54120475	0.4993546	0.5320545
O	0.5412905	0.499691	0.65643925
O	0.54283905	0.50109965	0.7821154
O	0.54151435	0.498311	0.904923
O	0.54248495	0.59746055	0.03271265
O	0.54456315	0.59644445	0.15607935
O	0.54373175	0.60016625	0.27990745
O	0.5416319	0.59926695	0.40502485
O	0.5424958	0.5990036	0.5301481
O	0.54386055	0.59910955	0.65552615
O	0.54231435	0.6001855	0.78330085
O	0.54450285	0.5983217	0.9069879
O	0.54215295	0.69908355	0.03105195
O	0.54264795	0.69932425	0.15505815
O	0.54276105	0.69820985	0.28020005
O	0.5424936	0.7006148	0.40560495
O	0.5440882	0.6981669	0.5307524
O	0.54828845	0.72056015	0.65451735
O	0.5417821	0.70116475	0.78166455
O	0.5429144	0.7000656	0.9058629
O	0.5442653	0.7976199	0.03033195
O	0.54111225	0.7994056	0.1551706
O	0.5416408	0.8001075	0.2818203
O	0.54298215	0.7991962	0.4053733
O	0.53966165	0.80123675	0.531364
O	0.5439101	0.79912855	0.6568283
O	0.54471595	0.79954985	0.7823717
O	0.54158875	0.79706935	0.90678255
O	0.5441274	0.8983297	0.03175225
O	0.54470035	0.89750985	0.15682985
O	0.54216105	0.89640815	0.2806567
O	0.54130955	0.89700045	0.40541845
O	0.5408397	0.90265565	0.531443
O	0.5421061	0.89988905	0.6553467
O	0.5423583	0.89873425	0.78169805
O	0.54137505	0.89845055	0.90617475
O	0.54408235	0.99949115	0.0315012
O	0.54323985	0.99785325	0.1566116
O	0.54117865	0.9984753	0.28231765
O	0.54125145	0.0008365	0.4059946
O	0.54279245	0.9971108	0.53032815
O	0.54199045	0.9993258	0.6559349
O	0.5423094	0.00023365	0.78117695
O	0.54213355	0.997823	0.90741835
O	0.64390555	0.10055695	0.031098
O	0.64272875	0.0986992	0.15488795
O	0.64236705	0.0980456	0.2816306
O	0.6410173	0.09908135	0.4050373
O	0.643205	0.09603115	0.5302882
O	0.64271795	0.09941005	0.6567769
O	0.6430803	0.098647	0.7820656
O	0.64279165	0.1003031	0.90564575
O	0.6446933	0.19904375	0.03097275
O	0.6442341	0.19671105	0.15678335
O	0.64260355	0.19891345	0.28145375
O	0.6445815	0.1991561	0.4062271
O	0.64296225	0.1966239	0.53267015
O	0.6423778	0.1986331	0.65629795
O	0.64275725	0.19696325	0.78294945
O	0.6447256	0.19775775	0.9048637
O	0.64123445	0.2997239	0.0299513
O	0.6422273	0.29911215	0.1575399
O	0.64614195	0.2983548	0.28130985
O	0.642778	0.29893315	0.4064685
O	0.643384	0.29889855	0.53236975
O	0.64367345	0.2978058	0.65618045
O	0.6445166	0.30078475	0.782138
O	0.6431891	0.30104955	0.9049746
O	0.6410554	0.39924215	0.0308641
O	0.6423125	0.39824595	0.15681435
O	0.6435851	0.3970864	0.2811864
O	0.6417228	0.3985314	0.4068785
O	0.64243505	0.3977909	0.53212485
O	0.64139855	0.40144535	0.6565933
O	0.64198995	0.39925985	0.7830819
O	0.64188455	0.4004567	0.90740425
O	0.64311665	0.4969993	0.03056775
O	0.64205185	0.499561	0.15784355
O	0.64317125	0.4993394	0.2813187
O	0.64106	0.4958328	0.40554245
O	0.6415189	0.49661075	0.53201435
O	0.64280705	0.4990483	0.6553559
O	0.6405153	0.4958474	0.78033055
O	0.6416304	0.4993538	0.9046289
O	0.6429584	0.5988732	0.03306485
O	0.641843	0.59854	0.15613585
O	0.6406007	0.5984623	0.2810855
O	0.6453488	0.6149162	0.41030875
O	0.64238695	0.59862055	0.5316094
O	0.64417745	0.5990088	0.6547711
O	0.64410055	0.5983622	0.7822087
O	0.6422978	0.60165695	0.9058427
O	0.6438915	0.6972794	0.03097905
O	0.64316085	0.69730805	0.1555141
O	0.6428446	0.6978894	0.2800635
O	0.64277355	0.69785985	0.40523675
O	0.6431884	0.70239015	0.53207315
O	0.64167915	0.6970078	0.6563412
O	0.64519545	0.69781185	0.7794838
O	0.64344845	0.69879955	0.90746685
O	0.64194655	0.80048925	0.0308569
O	0.64488795	0.79936905	0.155898
O	0.64175445	0.7992476	0.28004105
O	0.64303305	0.8004498	0.40591155
O	0.6404434	0.79861295	0.5300544
O	0.64337015	0.79773785	0.6567456
O	0.64150325	0.79724325	0.78295595
O	0.6439781	0.7985643	0.9060032
O	0.64242605	0.89720615	0.0306181
O	0.64241785	0.9000116	0.1569851
O	0.6432087	0.89738945	0.2816407
O	0.64195205	0.90103415	0.40819295
O	0.6410827	0.8991886	0.53019995
O	0.6425603	0.8978372	0.65618615
O	0.64304665	0.89938135	0.78281385
O	0.64345505	0.8982392	0.9054114
O	0.6423177	0.99728455	0.03050195
O	0.6442703	0.99815535	0.1559337
O	0.64119905	0.0004281	0.28148525
O	0.6434568	0.99920815	0.4052843
O	0.6428016	0.0001257	0.5309288
O	0.64339665	0.99781395	0.6562546
O	0.6440739	0.9969085	0.77881935
O	0.6424327	0.9975186	0.90703995
O	0.74236195	0.09996095	0.03095085
O	0.7440977	0.09809615	0.15580355
O	0.74251265	0.09818605	0.28247235
O	0.740572	0.09904645	0.40560815
O	0.74306175	0.0988068	0.5306379
O	0.74175275	0.09698005	0.6574804
O	0.74107575	0.0984503	0.78170535
O	0.7428468	0.10033855	0.9076016
O	0.74501065	0.1991945	0.03171385
O	0.74298865	0.1988235	0.15653805
O	0.74205175	0.19803275	0.28154465
O	0.74185795	0.19930545	0.40616615
O	0.74198835	0.19847365	0.532767
O	0.7431096	0.19857685	0.6563053
O	0.74458105	0.20056975	0.7811697
O	0.7421829	0.19962175	0.90653825
O	0.7422516	0.30167745	0.0310852
O	0.74268315	0.29887625	0.1561304
O	0.7430735	0.3004098	0.2823752
O	0.7425276	0.2977746	0.40610925
O	0.73933715	0.29732665	0.5315763
O	0.74372505	0.297644	0.6558827
O	0.7421593	0.30062965	0.7808088
O	0.7386172	0.29712925	0.9075582
O	0.74252395	0.3982948	0.03058045
O	0.74158105	0.39864605	0.1565946
O	0.74112725	0.39809255	0.28144965
O	0.7423682	0.3993075	0.4064833
O	0.74423855	0.40109865	0.5317933
O	0.7416065	0.3973586	0.6565867
O	0.74206575	0.39892625	0.78093035
O	0.7437125	0.39896135	0.90644435
O	0.7428906	0.4958326	0.0315364
O	0.7410086	0.50065115	0.15645295
O	0.74290275	0.5004363	0.2816299
O	0.7438012	0.49924115	0.4062623
O	0.7413116	0.50254005	0.5302861
O	0.7427414	0.49890465	0.65683775
O	0.7418567	0.4981679	0.78055985
O	0.74195185	0.4974908	0.90531005
O	0.7441626	0.59856215	0.032433
O	0.74338895	0.59881995	0.15536105
O	0.74151065	0.595064	0.2829266
O	0.74096195	0.5970304	0.4071195
O	0.74339395	0.60038835	0.53042045
O	0.74355245	0.5983251	0.65749665
O	0.74322875	0.5976139	0.78271505
O	0.74057305	0.5980665	0.906903
O	0.7415009	0.69601455	0.0323483
O	0.7417425	0.70194215	0.15603235
O	0.7421467	0.6993446	0.27903335
O	0.74371465	0.6997253	0.40472755
O	0.7413617	0.69941115	0.5310041
O	0.74318365	0.69979355	0.6557039
O	0.74129995	0.69716975	0.7834489
O	0.7421212	0.69901445	0.9064724
O	0.74188715	0.798782	0.0300887
O	0.7414083	0.7993501	0.1561128
O	0.74342565	0.79821455	0.2818087
O	0.74247535	0.80136825	0.4053392
O	0.74195795	0.79727515	0.53231585
O	0.7435105	0.79745415	0.656655
O	0.7411821	0.799798	0.7820102
O	0.74120295	0.7981213	0.9075274
O	0.7422843	0.89841895	0.02996755
O	0.7422508	0.8990404	0.1552286
O	0.7441617	0.8973668	0.28200355
O	0.74150125	0.9120623	0.40201055
O	0.7408953	0.8990979	0.5305518
O	0.74411555	0.8985423	0.6563731
O	0.7438437	0.8985306	0.7816305
O	0.7412553	0.8981454	0.9062326
O	0.74151655	0.0006407	0.03174835
O	0.74251735	0.0005348	0.15585985
O	0.74047535	0.00016115	0.280861
O	0.74175705	0.99896645	0.40627255
O	0.74113365	0.9973422	0.53128855
O	0.74078905	0.9995	0.65767025
O	0.74202495	0.0006672	0.7812734
O	0.7429746	0.9998942	0.90784675
O	0.8433923	0.0996308	0.0307926
O	0.84286985	0.09847105	0.15563955
O	0.84020925	0.0993245	0.28018045
O	0.84499015	0.09772845	0.40646365
O	0.84189155	0.0974458	0.5316113
O	0.84208725	0.096826	0.65462175
O	0.8430328	0.0983349	0.78024655
O	0.84404585	0.09962695	0.9055632
O	0.8423166	0.1976632	0.03042805
O	0.84130235	0.1994285	0.15512505
O	0.8446585	0.19692215	0.28057705
O	0.84114525	0.1976948	0.40616075
O	0.8425523	0.200667	0.53233265
O	0.8421799	0.19867055	0.6581241
O	0.8411422	0.1971874	0.78094355
O	0.84324255	0.1996009	0.90608545
O	0.84264575	0.29987375	0.02962295
O	0.8435682	0.29877635	0.15615505
O	0.8414712	0.29952315	0.2818293
O	0.84218355	0.30142785	0.40825275
O	0.8437664	0.3024963	0.53185055
O	0.8410143	0.2993932	0.65476595
O	0.8427823	0.29779665	0.7807917
O	0.84217125	0.29811335	0.906975
O	0.84211585	0.40084605	0.03150525
O	0.84267595	0.3999875	0.15478315
O	0.8427406	0.40036135	0.280696
O	0.8425106	0.3993589	0.4055817
O	0.84155325	0.40037515	0.53109415
O	0.8440594	0.40103495	0.65680035
O	0.8414777	0.3991378	0.7824108
O	0.84262205	0.39801175	0.90562975
O	0.8420145	0.4983394	0.02985955
O	0.84425895	0.5011145	0.15663045
O	0.84210035	0.5001789	0.28231465
O	0.8407705	0.49591445	0.40629225
O	0.8423177	0.49461985	0.53032085
O	0.8411226	0.4978284	0.6554175
O	0.84236185	0.50263815	0.7809679
O	0.8438522	0.4987107	0.905213
O	0.84439115	0.62051085	0.02732265
O	0.8407266	0.59678275	0.15629595
O	0.8421467	0.59906935	0.28118395
O	0.8440463	0.5995703	0.4061207
O	0.8439655	0.59745025	0.5328376
O	0.8424975	0.5975383	0.6561527
O	0.84443665	0.59898395	0.78159665
O	0.84309125	0.5961088	0.90567965
O	0.8436286	0.69938155	0.0324911
O	0.840944	0.6990057	0.155531
O	0.84038535	0.69804355	0.2803296
O	0.8412646	0.6996807	0.40759425
O	0.84136575	0.6952326	0.5307008
O	0.8427223	0.69860285	0.6565504
O	0.8437712	0.69740185	0.78232685
O	0.8419885	0.6989343	0.9070689
O	0.84201755	0.7981637	0.0307643
O	0.84152945	0.80042195	0.1577517
O	0.84038325	0.798668	0.2801265
O	0.8411236	0.79879205	0.4044636
O	0.84022825	0.7982687	0.5294037
O	0.84219195	0.7975684	0.6564731
O	0.84190255	0.7980733	0.78178245
O	0.8406319	0.79619845	0.9045293
O	0.842361	0.89973775	0.0304007
O	0.84141525	0.8967897	0.15549595
O	0.8453366	0.8989658	0.2792743
O	0.8420493	0.90036695	0.40645625
O	0.84116735	0.89771425	0.5319131
O	0.84220665	0.8993936	0.6553932
O	0.842604	0.89989745	0.7823342
O	0.8418897	0.8979067	0.90608885
O	0.8430139	0.99637625	0.03206465
O	0.84318755	0.99766455	0.15552845
O	0.8415191	0.01898335	0.2843835
O	0.8419502	0.99947055	0.408272
O	0.8440425	0.0006944	0.53051825
O	0.84109935	0.99883285	0.6579029
O	0.8421812	0.99877305	0.78219485
O	0.84299525	0.99822075	0.90576955
O	0.9428454	0.0980749	0.0296868
O	0.9410793	0.0973057	0.15580805
O	0.941576	0.09836325	0.28145075
O	0.9409015	0.1176146	0.40959845
O	0.9439203	0.09831615	0.53148385
O	0.9436607	0.09777165	0.65722005
O	0.9440356	0.0995688	0.78319345
O	0.94197025	0.0983955	0.90815665
O	0.94411285	0.19927575	0.0294576
O	0.9442436	0.19836215	0.15732995
O	0.9423703	0.19963305	0.2828578
O	0.9448075	0.20277925	0.4047151
O	0.9419861	0.2012431	0.530814
O	0.9420675	0.19990855	0.65589295
O	0.94295245	0.1960576	0.7817428
O	0.9425242	0.1987883	0.905781
O	0.943912	0.29945465	0.0312147
O	0.9429911	0.2988516	0.1572841
O	0.9437214	0.3002281	0.28157265
O	0.9421324	0.30494355	0.4062623
O	0.944234	0.2989006	0.5315717
O	0.942562	0.29655235	0.6564244
O	0.9423021	0.2980029	0.7817513
O	0.94115415	0.29942815	0.90700605
O	0.94308495	0.3970342	0.031287
O	0.9417024	0.39935905	0.1549619
O	0.94340985	0.3977487	0.2816224
O	0.94292115	0.3986236	0.40632785
O	0.94202445	0.39808285	0.5322511
O	0.94165855	0.4002417	0.65605645
O	0.9433911	0.3982129	0.7807385
O	0.94280685	0.3976443	0.9090524
O	0.94192385	0.4991009	0.0311041
O	0.94457785	0.49708845	0.1541419
O	0.9407235	0.5013805	0.2806127
O	0.94169125	0.4972654	0.4078322
O	0.9416339	0.49690395	0.53156555
O	0.94345595	0.49857935	0.6562232
O	0.94401465	0.5000504	0.78085475
O	0.94216975	0.497004	0.9058714
O	0.942426	0.5996141	0.0291992
O	0.94184725	0.59848805	0.1575035
O	0.9411933	0.59890885	0.28007875
O	0.9451425	0.5976705	0.40690905
O	0.94277855	0.60001955	0.5333245
O	0.941874	0.5965208	0.65623605
O	0.9394974	0.6001815	0.7804303
O	0.9444213	0.59768495	0.9058621
O	0.9436778	0.6979837	0.02935275
O	0.9420159	0.69700605	0.15597585
O	0.94192495	0.700791	0.2816777
O	0.9421097	0.69646895	0.406544
O	0.94343475	0.6989058	0.53331815
O	0.9438528	0.69842425	0.6575225
O	0.94546285	0.69988355	0.781718
O	0.9418281	0.6994061	0.90713925
O	0.94133685	0.80030245	0.03055015
O	0.94558265	0.7978213	0.15628455
O	0.94228795	0.79695435	0.28105035
O	0.9435378	0.8010256	0.4054116
O	0.94419095	0.80040965	0.53140305
O	0.9449489	0.80125915	0.6583148
O	0.94463155	0.79952775	0.7813722
O	0.94134775	0.7992999	0.90694875
O	0.9395384	0.8991009	0.0314954
O	0.94070285	0.8993901	0.1552081
O	0.9429972	0.89894355	0.28216365
O	0.944052	0.89627935	0.40422635
O	0.9435838	0.8980391	0.52997105
O	0.9409096	0.8985125	0.65626255
O	0.94096365	0.89775335	0.78139865
O	0.9439371	0.89946675	0.90528145
O	0.9423167	0.9994228	0.03110295
O	0.94078435	0.99958325	0.15676925
O	0.94042515	0.99877245	0.28030465
O	0.9398228	0.99825685	0.4074227
O	0.94443245	0.9989815	0.5307494
O	0.94322715	0.99693785	0.656303
O	0.94343955	0.99931	0.7815099
O	0.94255965	0.9994782	0.90761075
O	0.0739446	0.03204475	0.00650775
O	0.07319095	0.02965345	0.13040825
O	0.073067	0.0325246	0.25332765
O	0.0724183	0.0311116	0.38204205
O	0.07258885	0.02955005	0.50376205
O	0.0749697	0.0305471	0.6298998
O	0.07278065	0.03284125	0.7536483
O	0.0725181	0.0277349	0.87939225
O	0.071821	0.1283667	0.00611845
O	0.07375595	0.12912025	0.1323615
O	0.0591353	0.1413845	0.25006035
O	0.07284465	0.13348575	0.3800857
O	0.0726756	0.13144775	0.50426245
O	0.074588	0.1295979	0.63116795
O	0.07447065	0.12903105	0.75615115
O	0.07276545	0.1313816	0.8796158
O	0.0727481	0.23060115	0.00454965
O	0.07332285	0.22958525	0.1291835
O	0.0754686	0.2291604	0.2578612
O	0.0740563	0.23063275	0.3793164
O	0.074343	0.22860875	0.506396
O	0.07124405	0.2333635	0.63158385
O	0.07278345	0.22823475	0.75390855
O	0.0750953	0.22684455	0.87866725
O	0.0717948	0.33046645	0.0057953
O	0.0699148	0.3330898	0.13090295
O	0.07286435	0.3294623	0.25357885
O	0.0754576	0.3276271	0.3796819
O	0.0740743	0.33217255	0.5064228
O	0.07322665	0.3313765	0.62963195
O	0.0708177	0.3289997	0.7559321
O	0.07381765	0.3301338	0.8811921
O	0.07345205	0.4282441	0.00519415
O	0.07448595	0.4294189	0.12946975
O	0.07495115	0.42792785	0.25198595
O	0.07349105	0.4293051	0.38153215
O	0.0724506	0.43073885	0.50467785
O	0.0728957	0.43074485	0.62942615
O	0.07355495	0.42992295	0.755675
O	0.0745465	0.42965925	0.87861995
O	0.07297025	0.52795145	0.00476505
O	0.0734474	0.52713115	0.1321439
O	0.07173015	0.5332185	0.25637285
O	0.07327975	0.53009995	0.38249135
O	0.07436895	0.5278128	0.50556825
O	0.0741783	0.53002865	0.63085985
O	0.07323425	0.52762515	0.75338695
O	0.0743602	0.5298662	0.88243815
O	0.0715661	0.6298219	0.0056609
O	0.0720583	0.62796715	0.12887775
O	0.07411545	0.62672315	0.25167385
O	0.0730226	0.63155585	0.3799111
O	0.07312325	0.63170555	0.50326755
O	0.0743302	0.62826795	0.63082015
O	0.0731877	0.6290649	0.75635485
O	0.06984475	0.6301742	0.88005655
O	0.0739031	0.73154035	0.0054729
O	0.0744792	0.7280104	0.1304924
O	0.07200385	0.73053885	0.2539013
O	0.0748891	0.7300256	0.38030845
O	0.07419575	0.73228045	0.50523035
O	0.07381165	0.7287769	0.6307817
O	0.073622	0.73024815	0.75546105
O	0.0718532	0.7303032	0.88250355
O	0.07395425	0.82757805	0.00587725
O	0.0736192	0.82914145	0.1269707
O	0.0743415	0.83117945	0.25431975
O	0.07415265	0.82987305	0.3793126
O	0.0728976	0.83295765	0.50387485
O	0.0729989	0.82950475	0.6305652
O	0.07373775	0.8282613	0.75349595
O	0.0731161	0.831837	0.87836645
O	0.07235135	0.9292753	0.00394085
O	0.0728126	0.9313446	0.1289913
O	0.07311285	0.9323355	0.2563716
O	0.0763971	0.9313461	0.38018995
O	0.07623435	0.9282463	0.5062472
O	0.07335245	0.9307017	0.626935
O	0.0751013	0.9281105	0.7547992
O	0.07187275	0.9314206	0.87976545
O	0.1707447	0.02992345	0.004035
O	0.1731339	0.030574	0.12902385
O	0.1733029	0.0291755	0.2556521
O	0.17346165	0.0287147	0.38075735
O	0.1728888	0.03237525	0.50594055
O	0.17535955	0.02860085	0.6268723
O	0.17409625	0.0298153	0.75436915
O	0.17301805	0.0309718	0.880859
O	0.17210545	0.1342357	0.0026488
O	0.17178945	0.1277263	0.12913615
O	0.17234785	0.1286335	0.25292625
O	0.17447315	0.1298267	0.3785089
O	0.17329235	0.13010005	0.5045521
O	0.17245075	0.1278905	0.6285518
O	0.17525085	0.1297265	0.75593865
O	0.1734822	0.1272938	0.88019555
O	0.17345915	0.2302355	0.00463745
O	0.17262705	0.2319611	0.1322037
O	0.17460125	0.2289468	0.2522948
O	0.17536175	0.22727355	0.37906915
O	0.17228395	0.2327888	0.5034733
O	0.17412855	0.22949105	0.63081845
O	0.1723179	0.2322402	0.75567215
O	0.17250945	0.2306112	0.88054525
O	0.1725674	0.33176905	0.00521945
O	0.1757809	0.33211485	0.12988045
O	0.1769306	0.32960805	0.25661775
O	0.1748132	0.3315333	0.38046425
O	0.1746091	0.3302412	0.50393825
O	0.1739464	0.3307453	0.6320229
O	0.17218515	0.33073985	0.7547327
O	0.17250915	0.33138865	0.87978985
O	0.1722877	0.4291908	0.00400765
O	0.1739313	0.42963275	0.13049375
O	0.1730446	0.42963775	0.2554588
O	0.1719953	0.43237955	0.3790123
O	0.173608	0.4294082	0.50561145
O	0.1729441	0.4319288	0.6297016
O	0.17230205	0.43280705	0.7545064
O	0.1740304	0.4293903	0.8800919
O	0.1737052	0.52875275	0.00451435
O	0.1729714	0.5302132	0.1306776
O	0.1744535	0.52964045	0.25454575
O	0.1733236	0.5314907	0.37941505
O	0.17383235	0.52912725	0.5035965
O	0.1720151	0.5297923	0.62989255
O	0.17140365	0.530976	0.75421815
O	0.1725683	0.53145605	0.87953845
O	0.17289625	0.6310179	0.00556085
O	0.17189355	0.6299469	0.1305418
O	0.17152975	0.63069405	0.25524925
O	0.1730957	0.63210235	0.38073175
O	0.17284005	0.6318361	0.50642465
O	0.1743099	0.63113865	0.62885705
O	0.1741491	0.62802355	0.7541414
O	0.17298695	0.62911615	0.87815885
O	0.17531645	0.73058685	0.00342695
O	0.17343905	0.7304026	0.1297954
O	0.17374195	0.72845335	0.2545126
O	0.17230525	0.73125135	0.37875865
O	0.1720837	0.72891905	0.504294
O	0.17213395	0.73177475	0.62925335
O	0.1723011	0.72822575	0.7550243
O	0.17369335	0.72834225	0.8820853
O	0.17282995	0.8318329	0.0029125
O	0.17142535	0.8314752	0.1257244
O	0.1733456	0.8312915	0.2531265
O	0.1757954	0.83318665	0.3785369
O	0.17583175	0.8273929	0.50566975
O	0.17533515	0.8291898	0.63081465
O	0.1762208	0.8303733	0.75465885
O	0.1742992	0.8304002	0.8783961
O	0.1728464	0.9307506	0.00334065
O	0.1729733	0.93164215	0.1300357
O	0.1753639	0.93289995	0.25480855
O	0.1734605	0.9270335	0.3781816
O	0.17356495	0.9300845	0.50465995
O	0.17208145	0.9336062	0.63060535
O	0.17280785	0.93003565	0.75567295
O	0.1743592	0.9299262	0.88041935
O	0.27154955	0.02818745	0.00483875
O	0.2714552	0.0285784	0.13033435
O	0.2733291	0.02574825	0.2542254
O	0.2725875	0.0334466	0.38079035
O	0.2752794	0.0313866	0.50318315
O	0.27413955	0.02701975	0.62792515
O	0.2750508	0.02848135	0.7531129
O	0.2749242	0.0277988	0.8784536
O	0.2729911	0.13100895	0.0059066
O	0.27442185	0.12718885	0.1307981
O	0.27232465	0.13092705	0.25603215
O	0.27405345	0.12687235	0.38002625
O	0.2740555	0.131119	0.50599355
O	0.274615	0.1304847	0.62911795
O	0.27238585	0.1300028	0.75241615
O	0.27549805	0.1232765	0.87664925
O	0.27102755	0.23185725	0.00335665
O	0.27595585	0.228289	0.12996525
O	0.2709492	0.22878145	0.25455335
O	0.2716318	0.23007515	0.37870225
O	0.27387455	0.2301646	0.5048229
O	0.2740699	0.2290387	0.6321782
O	0.2706873	0.2286635	0.7549311
O	0.2720652	0.23130575	0.87951205
O	0.27482235	0.3272477	0.00751805
O	0.2733171	0.3305665	0.13001265
O	0.27242385	0.3308711	0.2570264
O	0.2728896	0.32793355	0.3805062
O	0.27377195	0.330305	0.5049619
O	0.27279375	0.3307623	0.6375572
O	0.2709453	0.33339625	0.7554365
O	0.2752896	0.33089935	0.8795721
O	0.27420525	0.4295698	0.0045697
O	0.27421825	0.4293777	0.12992965
O	0.27053005	0.4305402	0.25385965
O	0.2761585	0.43093155	0.3801122
O	0.27239015	0.43018235	0.5035969
O	0.27263665	0.4302258	0.62949965
O	0.27556315	0.43039945	0.7539475
O	0.2717668	0.431523	0.8784303
O	0.2725122	0.5291886	0.0070434
O	0.2725315	0.530576	0.12888005
O	0.2751673	0.52794405	0.25535375
O	0.2707323	0.53118485	0.38185135
O	0.270966	0.5315057	0.50569455
O	0.27307495	0.5279279	0.6282687
O	0.2717426	0.52942615	0.75579945
O	0.27264225	0.53075725	0.87849785
O	0.27265065	0.6315651	0.0052176
O	0.27193635	0.6321787	0.13044925
O	0.27218925	0.6292514	0.2543337
O	0.27434855	0.62853055	0.38049605
O	0.2724679	0.628846	0.5062549
O	0.27305035	0.62725845	0.62860645
O	0.27238535	0.6304194	0.75613135
O	0.27534865	0.6268311	0.87996215
O	0.2736757	0.72838345	0.0051742
O	0.27182405	0.73020545	0.126984
O	0.27458835	0.73217845	0.2547954
O	0.2693501	0.7304208	0.38045615
O	0.27234445	0.731705	0.5030219
O	0.27280285	0.73156595	0.6314873
O	0.2747492	0.7312667	0.75547955
O	0.2741306	0.73012565	0.8801372
O	0.2728443	0.8299675	0.0064905
O	0.27330705	0.82907935	0.1306084
O	0.2740531	0.8284218	0.25297445
O	0.27440135	0.8321081	0.38226745
O	0.2750145	0.8324168	0.506968
O	0.2731656	0.83031855	0.62743395
O	0.2731628	0.8305723	0.75484025
O	0.27199185	0.8317953	0.8816138
O	0.27362065	0.92822415	0.0040988
O	0.27411495	0.9284021	0.13196325
O	0.2737432	0.9291615	0.25476465
O	0.27259085	0.93081855	0.37951205
O	0.27062435	0.9325241	0.5049151
O	0.2717089	0.92976405	0.63072435
O	0.27508015	0.9296138	0.7528487
O	0.27256665	0.92967185	0.87730355
O	0.37417875	0.02994565	0.0042498
O	0.37375985	0.028514	0.13070215
O	0.37207055	0.0316814	0.25413175
O	0.3747892	0.03104065	0.3803125
O	0.3733677	0.0303868	0.50693885
O	0.37215225	0.0297807	0.6294639
O	0.37294585	0.0317751	0.7554718
O	0.372448	0.02982125	0.88053565
O	0.37304705	0.12897555	0.00509655
O	0.37287905	0.12921195	0.13076915
O	0.37511755	0.12677605	0.254972
O	0.3719294	0.13029515	0.38002165
O	0.3729977	0.1263374	0.50646285
O	0.37250435	0.1300243	0.62848985
O	0.3722273	0.13036915	0.75413225
O	0.37112155	0.13282415	0.87794335
O	0.37515045	0.23333055	0.0072082
O	0.3758219	0.22725565	0.13071705
O	0.3738389	0.22903735	0.2542232
O	0.3738545	0.22565655	0.38061785
O	0.37319745	0.2302237	0.5056383
O	0.37218835	0.22629925	0.630561
O	0.37295645	0.2301849	0.7543125
O	0.37020905	0.228366	0.8828834
O	0.3725111	0.3311557	0.00547795
O	0.37377945	0.33130415	0.13101535
O	0.3717241	0.329487	0.25629185
O	0.37368765	0.3276269	0.3806476
O	0.3738271	0.3298559	0.5054624
O	0.3726104	0.3320748	0.6322398
O	0.374143	0.331191	0.7534335
O	0.37235005	0.3298237	0.88134875
O	0.370569	0.43152595	0.0045284
O	0.376286	0.42791235	0.1298969
O	0.37187245	0.43141385	0.25348235
O	0.3732315	0.43083385	0.38161175
O	0.37084265	0.4300977	0.50530895
O	0.37131735	0.4321653	0.63075675
O	0.37286555	0.4298262	0.7546637
O	0.3737369	0.4300232	0.88139995
O	0.3728435	0.52770155	0.0039231
O	0.3729447	0.5293384	0.12911295
O	0.3726248	0.53143165	0.25351145
O	0.3752096	0.52948845	0.3800656
O	0.37288805	0.52953645	0.504148
O	0.37394675	0.5285466	0.62836085
O	0.3723837	0.52771675	0.7546863
O	0.3734217	0.52813025	0.88178745
O	0.3732904	0.6297776	0.0030084
O	0.37355765	0.6316015	0.13019875
O	0.37209835	0.62750215	0.25346945
O	0.3720756	0.6330743	0.3796755
O	0.37261775	0.62922855	0.5044435
O	0.373204	0.62832695	0.63102585
O	0.37027515	0.6319192	0.7567847
O	0.3739884	0.62957125	0.88083315
O	0.3713393	0.7305935	0.0032438
O	0.37227405	0.732374	0.1314044
O	0.3733042	0.73105495	0.25420445
O	0.37336425	0.7327162	0.37978285
O	0.3750032	0.73021275	0.50575555
O	0.3617137	0.7278114	0.64829275
O	0.37250445	0.7314621	0.75563725
O	0.37370875	0.7290587	0.8810375
O	0.3768727	0.82874575	0.0040508
O	0.3732964	0.82973045	0.13036175
O	0.37420245	0.8313815	0.25459995
O	0.37350115	0.83033265	0.37832995
O	0.3736991	0.8275384	0.5059692
O	0.37177525	0.8297875	0.6293846
O	0.373346	0.83102785	0.75584115
O	0.37464475	0.82833935	0.8809318
O	0.3733141	0.9301046	0.00553005
O	0.37203715	0.92843135	0.13105615
O	0.3721449	0.93037155	0.2556746
O	0.37181755	0.9308844	0.37906135
O	0.3712972	0.9308612	0.5037993
O	0.37567395	0.92980755	0.62917075
O	0.37290485	0.93287525	0.754158
O	0.3731622	0.92759905	0.88042275
O	0.47278735	0.030632	0.0046905
O	0.4734681	0.0306489	0.13065565
O	0.4727877	0.03086105	0.2562943
O	0.47113785	0.03008455	0.37854525
O	0.4712656	0.02768865	0.5069274
O	0.4736246	0.0288734	0.63090305
O	0.46810535	0.04934585	0.74889585
O	0.47470275	0.03013415	0.87967735
O	0.473599	0.1301499	0.0037203
O	0.4740978	0.1304294	0.13231675
O	0.47230585	0.13162235	0.253777
O	0.47313505	0.1262304	0.37822045
O	0.47322135	0.1296089	0.5040365
O	0.47262655	0.1301374	0.63168255
O	0.47377985	0.1319414	0.7605768
O	0.4746398	0.1361437	0.8816813
O	0.4764911	0.2285384	0.0046327
O	0.47330505	0.23016735	0.1287907
O	0.47389545	0.2292245	0.25418855
O	0.473239	0.23294355	0.3788107
O	0.4736233	0.2335891	0.504629
O	0.46667885	0.2455362	0.62259235
O	0.47348945	0.23093485	0.75391005
O	0.47335885	0.2315729	0.88311435
O	0.47267705	0.33227275	0.0058336
O	0.47305865	0.33193085	0.12949475
O	0.47316385	0.3321212	0.2550624
O	0.4733026	0.3334088	0.378843
O	0.4760078	0.32739345	0.5037694
O	0.47323115	0.32890715	0.62885495
O	0.47241125	0.32971015	0.7548076
O	0.47557995	0.32957685	0.8783056
O	0.47301185	0.4322828	0.00409285
O	0.473928	0.4299011	0.12757025
O	0.4711827	0.4312258	0.2552563
O	0.47365065	0.433073	0.38158055
O	0.47298425	0.4305836	0.50469355
O	0.47482225	0.43069735	0.63136565
O	0.47443345	0.42895895	0.7545643
O	0.4715382	0.43183095	0.87948135
O	0.4726364	0.53021005	0.00552895
O	0.47373885	0.5293488	0.1309672
O	0.47448985	0.53097515	0.25272945
O	0.47219515	0.52980955	0.38168385
O	0.47359795	0.53052885	0.5043937
O	0.4737711	0.5296035	0.6313032
O	0.47342405	0.52799445	0.7524714
O	0.47524525	0.5279697	0.87998175
O	0.47511255	0.6301251	0.00803285
O	0.4737399	0.63309065	0.1352411
O	0.47246635	0.63121065	0.2562793
O	0.47516505	0.6262802	0.38016735
O	0.47314355	0.62866455	0.50437545
O	0.47178075	0.62722475	0.63065845
O	0.47376805	0.62647255	0.7552948
O	0.4570453	0.64363695	0.87764745
O	0.4719874	0.73036585	0.00694295
O	0.47260505	0.73163295	0.12850535
O	0.4719057	0.7309677	0.2552378
O	0.47161195	0.73064255	0.3805155
O	0.4743949	0.733095	0.5048446
O	0.4715845	0.7308602	0.6316259
O	0.47140945	0.7300528	0.7568218
O	0.4748928	0.7307719	0.8789377
O	0.4731459	0.8332357	0.00506885
O	0.4728734	0.8285595	0.128797
O	0.47468645	0.83410765	0.25496255
O	0.47223185	0.83100105	0.37924315
O	0.47213395	0.8304704	0.504093
O	0.47367615	0.8299155	0.6296773
O	0.471865	0.83113675	0.756993
O	0.47259445	0.8309001	0.88113745
O	0.4747859	0.929203	0.0058322
O	0.47352095	0.9312054	0.13117905
O	0.47193115	0.93160635	0.253117
O	0.47257245	0.9300916	0.3819442
O	0.47175335	0.93409055	0.504824
O	0.4741504	0.92631965	0.6307277
O	0.4740387	0.9303258	0.7552685
O	0.47366825	0.92876815	0.8798004
O	0.57123805	0.0323923	0.0055535
O	0.5742281	0.02855995	0.12868275
O	0.57108845	0.03099085	0.2563703
O	0.57274265	0.0292	0.3779625
O	0.5740011	0.0269129	0.50668005
O	0.57978315	0.01758405	0.6277799
O	0.5735237	0.0294212	0.756145
O	0.57224295	0.0293609	0.88062055
O	0.57374385	0.1298366	0.0059472
O	0.57286095	0.1295384	0.12797265
O	0.5718165	0.1294274	0.25630935
O	0.5710985	0.13021675	0.37996455
O	0.57443475	0.13031845	0.50286355
O	0.57446	0.13090365	0.63164545
O	0.57492535	0.1284228	0.75472845
O	0.57439905	0.1306164	0.87882795
O	0.5745195	0.2312301	0.00550735
O	0.57244735	0.22611285	0.1298394
O	0.57224585	0.23267725	0.2537758
O	0.5724414	0.2288665	0.3795015
O	0.57568165	0.2319894	0.5054562
O	0.57093815	0.22918205	0.62881165
O	0.57487255	0.2283925	0.75380955
O	0.5759882	0.2266622	0.8807042
O	0.57530015	0.3307473	0.00419245
O	0.56606895	0.3276341	0.14777435
O	0.5742348	0.32921955	0.25554595
O	0.57262565	0.33176235	0.3782606
O	0.57444915	0.32840415	0.5057493
O	0.57358265	0.3303821	0.63164065
O	0.57372525	0.3315054	0.75575685
O	0.572793	0.32989695	0.88133555
O	0.5706372	0.43011445	0.00500215
O	0.57294775	0.43132175	0.1274782
O	0.57564275	0.43117525	0.2542185
O	0.57373665	0.43058765	0.38244395
O	0.5724887	0.4269829	0.5050658
O	0.57369015	0.4297311	0.6319356
O	0.57142925	0.43281675	0.75352405
O	0.5732055	0.4290577	0.87835915
O	0.5720117	0.53117855	0.00398145
O	0.5723651	0.5296434	0.13041915
O	0.57595165	0.52866665	0.2544004
O	0.57335555	0.528441	0.38035755
O	0.5748367	0.5290379	0.50384755
O	0.5749573	0.52910345	0.6297137
O	0.57291295	0.53021905	0.75413455
O	0.57303665	0.5316972	0.88047135
O	0.5735725	0.6318953	0.00585145
O	0.5711153	0.6310929	0.1314767
O	0.5734726	0.6300406	0.25552805
O	0.5723137	0.62826595	0.3800897
O	0.5736754	0.6304506	0.5073569
O	0.5715889	0.6292023	0.62843485
O	0.5727876	0.6271271	0.75685675
O	0.57401735	0.6286902	0.8804988
O	0.5713442	0.73143895	0.0049816
O	0.57296025	0.7324461	0.1291509
O	0.5718832	0.72975885	0.2558326
O	0.57087345	0.7303801	0.3797349
O	0.57472715	0.7313802	0.50583995
O	0.57284815	0.7303737	0.6260355
O	0.57375325	0.72851715	0.75819915
O	0.57665695	0.7255751	0.879616
O	0.5714428	0.8290662	0.0053811
O	0.57160105	0.8301336	0.13142375
O	0.5730077	0.83086585	0.2541823
O	0.5759565	0.83118335	0.38012355
O	0.5708874	0.83472955	0.50231955
O	0.576247	0.82875295	0.6287815
O	0.5718914	0.8295589	0.755576
O	0.5737319	0.831856	0.87817945
O	0.57376685	0.9274943	0.005087
O	0.57380705	0.9290454	0.12870545
O	0.574957	0.92748875	0.2551708
O	0.57491545	0.9273455	0.37979395
O	0.57312485	0.92877305	0.50517935
O	0.5723557	0.93108355	0.6285134
O	0.5716222	0.92912315	0.7547626
O	0.5713244	0.93072035	0.8785042
O	0.6718386	0.0302227	0.00510265
O	0.6728026	0.03177205	0.12977245
O	0.67379685	0.0289274	0.25451035
O	0.6727485	0.02931205	0.3817914
O	0.6731839	0.03227235	0.50672245
O	0.6723449	0.03030095	0.62914195
O	0.67497115	0.0283362	0.7540052
O	0.6733325	0.02881455	0.8809323
O	0.67161105	0.1322242	0.0031266
O	0.6714355	0.1310942	0.12992705
O	0.6719836	0.12837785	0.25506675
O	0.6733362	0.1290316	0.38087355
O	0.6739041	0.1406419	0.51318415
O	0.67149565	0.1285092	0.6302367
O	0.67129525	0.13178165	0.7548258
O	0.67099145	0.12786695	0.87979445
O	0.67244165	0.2295347	0.00471115
O	0.6745128	0.22969805	0.13179005
O	0.67308355	0.2310408	0.25427195
O	0.6732989	0.2294378	0.38033325
O	0.6730243	0.23259155	0.50440975
O	0.67452805	0.23153965	0.6313024
O	0.67390635	0.2294943	0.75510275
O	0.6748354	0.226734	0.8807921
O	0.67362825	0.33047465	0.00371285
O	0.67069895	0.3304899	0.1308752
O	0.6738439	0.32994695	0.2540024
O	0.6718517	0.33252235	0.38083195
O	0.675757	0.32755285	0.50479345
O	0.6726045	0.32937825	0.629313
O	0.6741423	0.3300377	0.756333
O	0.67224285	0.3307654	0.8806849
O	0.6740792	0.4302683	0.00361985
O	0.67469645	0.4299228	0.1309654
O	0.6739819	0.43214755	0.25616805
O	0.6739798	0.43067345	0.3793975
O	0.67180505	0.43241425	0.5045015
O	0.6728135	0.4307754	0.63008535
O	0.6749505	0.4293795	0.75617915
O	0.67265375	0.4300293	0.88079145
O	0.67430015	0.5299394	0.00469025
O	0.67430335	0.5302396	0.13018405
O	0.6724333	0.53154045	0.2551364
O	0.67401795	0.529537	0.3786116
O	0.67445655	0.5269286	0.50398005
O	0.6744738	0.5300781	0.63137275
O	0.67317575	0.5310553	0.75496375
O	0.6732168	0.5303646	0.8803102
O	0.67408665	0.6291484	0.00446845
O	0.671769	0.6309127	0.1292872
O	0.6700693	0.6367271	0.2562345
O	0.6695776	0.6293735	0.3790723
O	0.6714467	0.6315648	0.50644775
O	0.67156395	0.63139165	0.6291001
O	0.6741794	0.63046835	0.75562575
O	0.67396205	0.63015545	0.87948415
O	0.67341315	0.7315839	0.00562355
O	0.67274455	0.73107705	0.13116785
O	0.6730167	0.7304584	0.2551842
O	0.67528945	0.73072165	0.3786746
O	0.6714868	0.7338792	0.50515165
O	0.67215765	0.7308574	0.62988165
O	0.67497245	0.7297472	0.75594875
O	0.67366635	0.72893915	0.88064785
O	0.6730155	0.8304078	0.0036985
O	0.67508545	0.83044665	0.12975055
O	0.6729203	0.83009315	0.25357035
O	0.6725906	0.8314224	0.37838085
O	0.67031395	0.8311153	0.50383035
O	0.67269175	0.8303276	0.63126465
O	0.6735182	0.8308847	0.75560445
O	0.67343645	0.83036165	0.88021965
O	0.6744602	0.93111985	0.00617145
O	0.6728833	0.9309381	0.1293713
O	0.6755337	0.930424	0.2546693
O	0.6719228	0.93114845	0.3794804
O	0.6748436	0.93008235	0.5063316
O	0.67412925	0.9283144	0.63053385
O	0.675912	0.92663155	0.7548149
O	0.673971	0.92948385	0.8780208
O	0.7724241	0.0289387	0.0054066
O	0.7738712	0.02994685	0.1289318
O	0.77253635	0.0302995	0.25602165
O	0.77129685	0.0293589	0.3784836
O	0.7714405	0.03097435	0.5052063
O	0.7733292	0.0295166	0.6318227
O	0.77351435	0.0289209	0.7530707
O	0.77186725	0.0313178	0.8794244
O	0.7729229	0.1298513	0.00443145
O	0.7706599	0.12987755	0.13101055
O	0.77333705	0.12889145	0.25575165
O	0.77256135	0.13168045	0.38060775
O	0.77278125	0.1285807	0.50339745
O	0.7765344	0.13163465	0.63045505
O	0.7739967	0.13060005	0.7553023
O	0.7749374	0.1288002	0.8783739
O	0.7734822	0.2295504	0.00391365
O	0.7731394	0.23056045	0.12891995
O	0.7718691	0.2281388	0.2552297
O	0.77419395	0.2299347	0.38072635
O	0.77251125	0.22897595	0.5046885
O	0.7721398	0.2299391	0.63011785
O	0.77325275	0.2308806	0.754498
O	0.77238485	0.22976475	0.8796437
O	0.77466075	0.327073	0.00642125
O	0.77320135	0.3300591	0.13265185
O	0.77346975	0.32902075	0.2555372
O	0.77245365	0.33089735	0.3800036
O	0.774364	0.3307208	0.50301935
O	0.77385005	0.3283235	0.63142325
O	0.77345945	0.3308612	0.75750175
O	0.77206875	0.3319716	0.8791218
O	0.77425145	0.43119135	0.003119
O	0.7717082	0.42912145	0.1325041
O	0.7722853	0.43023425	0.2553432
O	0.77336755	0.43012275	0.3791634
O	0.77256485	0.4296709	0.5035931
O	0.77278505	0.43029355	0.62917615
O	0.77213925	0.4311355	0.7559011
O	0.77427005	0.43149615	0.8811239
O	0.77168115	0.5309936	0.00497595
O	0.7730261	0.52864075	0.12826325
O	0.7741999	0.52935015	0.25396705
O	0.77258185	0.5307445	0.38013365
O	0.77249585	0.53076595	0.50582875
O	0.77195035	0.5315801	0.628645
O	0.77409355	0.53126805	0.7554334
O	0.77306075	0.5304566	0.8791778
O	0.7750127	0.631063	0.00428365
O	0.77369395	0.6274279	0.12862975
O	0.7731258	0.63041785	0.2568988
O	0.77378365	0.62835885	0.38064935
O	0.77224305	0.62911655	0.5065919
O	0.7740477	0.6310177	0.6283465
O	0.77411605	0.6306882	0.7536599
O	0.7727916	0.6298938	0.8797243
O	0.7744222	0.73000575	0.0057102
O	0.77394465	0.7286457	0.12955435
O	0.7731197	0.72989755	0.25555105
O	0.77298745	0.7307529	0.3789618
O	0.77423355	0.7271846	0.50704605
O	0.77430525	0.72849015	0.6317075
O	0.7748361	0.72915945	0.75702405
O	0.771818	0.72996045	0.87998195
O	0.77447345	0.82960795	0.0049507
O	0.7717168	0.8329734	0.12943195
O	0.76955045	0.83472555	0.25233375
O	0.7723701	0.829665	0.3801192
O	0.77420905	0.83072245	0.50920735
O	0.77108365	0.8302065	0.629648
O	0.7715436	0.8304473	0.75566805
O	0.77138245	0.83268235	0.8815223
O	0.7750187	0.9333311	0.01979235
O	0.77191535	0.9318189	0.1287095
O	0.7726592	0.92963645	0.25491165
O	0.77071045	0.929562	0.37949235
O	0.77429605	0.933909	0.5047626
O	0.7748995	0.9279333	0.63064065
O	0.7755638	0.9305429	0.75423735
O	0.7715048	0.9320642	0.88171595
O	0.87257865	0.0292348	0.00497565
O	0.87487515	0.0309167	0.12938915
O	0.87516325	0.02776525	0.25473705
O	0.8714046	0.02926545	0.37952135
O	0.8722482	0.02885965	0.505984
O	0.87419755	0.03226085	0.6317467
O	0.8737425	0.027726	0.7569614
O	0.8724257	0.02992845	0.88079735
O	0.872585	0.13029565	0.0045179
O	0.8706742	0.1298735	0.1295646
O	0.8742877	0.12916665	0.2523027
O	0.8723301	0.1293897	0.39721475
O	0.87407145	0.1309192	0.50348345
O	0.8731256	0.1324076	0.63208175
O	0.8727132	0.12901475	0.757195
O	0.8728306	0.1297943	0.87853195
O	0.8747953	0.231956	0.0042919
O	0.87496485	0.22920325	0.1304854
O	0.87439885	0.22983425	0.2546308
O	0.87124405	0.2294461	0.38058095
O	0.8730695	0.2317356	0.5037049
O	0.8723921	0.2285191	0.6323085
O	0.87314745	0.2276554	0.75609965
O	0.8709279	0.22989305	0.8800046
O	0.8731637	0.3332434	0.00548155
O	0.8732726	0.32917355	0.12778735
O	0.8735	0.33064155	0.2567374
O	0.8740027	0.3301528	0.37849955
O	0.87433175	0.33103335	0.50636925
O	0.8708595	0.33316345	0.62985595
O	0.87075495	0.3286725	0.75490135
O	0.87340825	0.33093475	0.8785335
O	0.87062935	0.43273695	0.00348735
O	0.87656255	0.4273928	0.1296312
O	0.8741929	0.43004805	0.25605465
O	0.87079225	0.4273637	0.3798921
O	0.8733777	0.4308338	0.50508965
O	0.87307225	0.43089475	0.63142145
O	0.8740516	0.42946925	0.75475605
O	0.8746084	0.4298977	0.87966335
O	0.87222175	0.53026735	0.00623565
O	0.8739451	0.53170575	0.1291719
O	0.87357805	0.52742945	0.25683225
O	0.87522195	0.5299699	0.3805045
O	0.87265875	0.52869755	0.50713975
O	0.8729284	0.5275959	0.63033265
O	0.87211045	0.5283624	0.75631085
O	0.872083	0.5305822	0.8794266
O	0.8730385	0.6296412	0.00401165
O	0.87170795	0.63082305	0.13087935
O	0.87167225	0.62909495	0.2544368
O	0.8746381	0.6294472	0.38104585
O	0.8609312	0.64590755	0.50200415
O	0.87118795	0.6324126	0.6310203
O	0.87349635	0.6296574	0.75706315
O	0.8744377	0.6292263	0.8794454
O	0.8728161	0.7306369	0.0021229
O	0.87327345	0.72956165	0.12934775
O	0.8720544	0.7309334	0.2558704
O	0.87466735	0.72899695	0.3796929
O	0.8735687	0.73327055	0.5031355
O	0.8741837	0.72846835	0.63184
O	0.87308355	0.72983345	0.7552422
O	0.8742075	0.7307194	0.88017085
O	0.87233625	0.82999315	0.00498765
O	0.8727847	0.8286714	0.12990115
O	0.872345	0.82945685	0.25609455
O	0.8733969	0.82966855	0.3780361
O	0.87242535	0.83074145	0.50427675
O	0.8735075	0.831245	0.6295935
O	0.87343315	0.82731555	0.7560187
O	0.87405295	0.8273037	0.8799062
O	0.8731662	0.9291651	0.0059295
O	0.8728116	0.93062315	0.12939685
O	0.8718323	0.93178215	0.2543302
O	0.8740414	0.9299886	0.37870175
O	0.87297575	0.93056095	0.5045782
O	0.87349045	0.93106925	0.62932165
O	0.87252535	0.92935475	0.7554195
O	0.87296995	0.93181855	0.8800808
O	0.9727534	0.0285359	0.0054369
O	0.9749274	0.03076275	0.12887475
O	0.9723	0.0313866	0.2530192
O	0.97531595	0.0292821	0.3785255
O	0.9742338	0.029189	0.50468585
O	0.9757901	0.02807365	0.6287723
O	0.97329125	0.0291507	0.7561597
O	0.9727858	0.02897795	0.8791747
O	0.97154355	0.13066915	0.00586185
O	0.97252185	0.13144275	0.1283183
O	0.97200415	0.13159115	0.254478
O	0.9725533	0.127253	0.3803696
O	0.97334125	0.13067705	0.50499475
O	0.9723913	0.1296878	0.63054345
O	0.9724521	0.1324847	0.75691655
O	0.97285225	0.1304921	0.88044895
O	0.97155905	0.2297857	0.0053558
O	0.97226415	0.23185115	0.12913375
O	0.97192	0.22991735	0.25499175
O	0.9740178	0.22937125	0.3795382
O	0.97303505	0.2309589	0.50590505
O	0.9738408	0.2278176	0.6295615
O	0.9756033	0.2292643	0.75599445
O	0.97279605	0.23095855	0.87877945
O	0.97319225	0.32709765	0.0033391
O	0.97166125	0.33078995	0.12872345
O	0.97209785	0.33178725	0.2539369
O	0.9744747	0.3302932	0.38018345
O	0.9741981	0.328065	0.504354
O	0.9731734	0.33065485	0.628047
O	0.97388715	0.32846195	0.754571
O	0.9710498	0.3293994	0.88057785
O	0.97297985	0.4308514	0.0038581
O	0.97303785	0.43006955	0.1298081
O	0.97274115	0.4296676	0.25341295
O	0.97550925	0.4298317	0.37981615
O	0.97261775	0.4306347	0.506073
O	0.97228645	0.43100915	0.6294737
O	0.9728577	0.4297823	0.7545752
O	0.9704312	0.4297345	0.87807335
O	0.9725876	0.52859615	0.0044109
O	0.97166755	0.52799985	0.12812945
O	0.9718396	0.52956605	0.25468535
O	0.97210805	0.53167195	0.379179
O	0.97172865	0.52942595	0.5055906
O	0.97383125	0.5293314	0.6292607
O	0.9748866	0.5301742	0.75371145
O	0.9749739	0.52974075	0.8788696
O	0.971628	0.62843875	0.00466955
O	0.97187875	0.63019325	0.13151505
O	0.9742277	0.6311919	0.25378825
O	0.97335885	0.62970215	0.3777171
O	0.9708225	0.6294501	0.5054224
O	0.97238205	0.62997005	0.6282365
O	0.97430105	0.62700735	0.75531
O	0.9736948	0.63004925	0.87907235
O	0.9718652	0.7323918	0.0048909
O	0.97282395	0.73128695	0.1292668
O	0.97428495	0.73182695	0.2553346
O	0.9722824	0.7281111	0.3802537
O	0.9733337	0.72936235	0.50296035
O	0.9697265	0.731678	0.6311982
O	0.9747666	0.7287356	0.7561612
O	0.97367725	0.72906645	0.87969685
O	0.9750294	0.82990545	0.0036568
O	0.9747062	0.8304791	0.1299559
O	0.97090655	0.83252065	0.2566086
O	0.9757419	0.8300133	0.3814677
O	0.9732095	0.83414635	0.50630655
O	0.97234825	0.83221155	0.6297145
O	0.97555295	0.8307851	0.75477475
O	0.9722562	0.832392	0.87934715
O	0.97209345	0.93055905	0.00613265
O	0.9718173	0.93272325	0.1295082
O	0.9735658	0.9296684	0.253934
O	0.97377255	0.93107495	0.37945
O	0.97357945	0.93216795	0.5068208
O	0.97336355	0.92871245	0.63197935
O	0.97268205	0.9306223	0.75523695
O	0.9733041	0.92850955	0.87960925
O	0.02249315	0.01954485	0.1201632
O	0.02277095	0.0172815	0.2467273
O	0.0236561	0.0195756	0.36823595
O	0.0238928	0.01857075	0.4957655
O	0.02358655	0.0179657	0.62079295
O	0.0231965	0.01800965	0.74478575
O	0.01959135	0.0165633	0.8700392
O	0.02222835	0.0161502	0.9963949
O	0.0221753	0.11855665	0.119434
O	0.02433135	0.1180689	0.24575555
O	0.022077	0.1207139	0.3689394
O	0.0236564	0.1175511	0.49595245
O	0.02189485	0.1193219	0.6200807
O	0.02339365	0.1192196	0.7454554
O	0.02204855	0.12024535	0.8684301
O	0.0215253	0.11912445	0.99710975
O	0.0208287	0.2161747	0.1194379
O	0.0205736	0.2179719	0.24364615
O	0.02459505	0.2183788	0.37226615
O	0.02307505	0.2179935	0.49520025
O	0.02171925	0.21843545	0.62140325
O	0.0234871	0.2193071	0.74396695
O	0.02152865	0.2194267	0.86998995
O	0.02209575	0.21997305	0.99440255
O	0.02510475	0.31971895	0.119229
O	0.02160215	0.31763415	0.24635665
O	0.0209651	0.3185654	0.3709423
O	0.02233625	0.31801795	0.494352
O	0.02291755	0.3199784	0.62002485
O	0.0215319	0.31951715	0.7460565
O	0.0234289	0.32170815	0.8700376
O	0.0225893	0.32105195	0.9966373
O	0.022608	0.42104965	0.120399
O	0.0227503	0.4183829	0.2447802
O	0.02262565	0.4200493	0.37020295
O	0.020994	0.42035715	0.496471
O	0.02189685	0.4163651	0.6225744
O	0.0212508	0.41930815	0.7455177
O	0.0238409	0.4184362	0.8693966
O	0.02202245	0.4190078	0.99536695
O	0.02328275	0.5201843	0.1204723
O	0.0235661	0.5167823	0.24237695
O	0.02364875	0.5199783	0.3718486
O	0.02464745	0.5192289	0.4953954
O	0.0252843	0.5186175	0.6180824
O	0.02135065	0.51748005	0.7466728
O	0.0213287	0.51811395	0.87022255
O	0.0225651	0.51891035	0.9945303
O	0.0206913	0.62008615	0.1184532
O	0.02143295	0.61883575	0.24451665
O	0.021806	0.6192016	0.3718652
O	0.0217244	0.61622715	0.4934936
O	0.02112385	0.6162144	0.6198944
O	0.02251355	0.61455455	0.7467945
O	0.02235975	0.6170468	0.86925985
O	0.02179545	0.61488165	0.99313935
O	0.01938945	0.7094033	0.1262156
O	0.02381995	0.7183496	0.2438672
O	0.0251842	0.72040235	0.37015105
O	0.02242085	0.72048585	0.49485945
O	0.0246663	0.72108865	0.6204974
O	0.02314365	0.72126625	0.7477775
O	0.02173275	0.7163863	0.87050235
O	0.0203016	0.71818065	0.99402685
O	0.0241673	0.81948435	0.11923625
O	0.0247817	0.81905475	0.24342325
O	0.0233573	0.819029	0.37026565
O	0.02542475	0.81793815	0.4959806
O	0.02243	0.81917515	0.62186275
O	0.02303785	0.81807015	0.74483
O	0.01907735	0.816999	0.87103385
O	0.02148915	0.819318	0.99478615
O	0.0238101	0.9181457	0.1189785
O	0.02424615	0.91942595	0.2462304
O	0.0242141	0.92030715	0.37145455
O	0.025595	0.9210675	0.49611155
O	0.02443675	0.92270305	0.61911955
O	0.02231925	0.92007015	0.744612
O	0.0216422	0.9193892	0.8701779
O	0.02273255	0.916874	0.9947427
O	0.122614	0.01837265	0.11967175
O	0.1225092	0.0186076	0.24535565
O	0.12406255	0.01949835	0.3689226
O	0.12289745	0.01677095	0.49445225
O	0.1231504	0.01898405	0.62128415
O	0.12408895	0.0182406	0.744521
O	0.12498605	0.01998335	0.8713922
O	0.12262275	0.0206273	0.9950934
O	0.12196335	0.12000215	0.1215104
O	0.1248254	0.1162292	0.24333665
O	0.12408455	0.11977825	0.37249275
O	0.12460825	0.1181158	0.49603525
O	0.12242325	0.11922835	0.61994265
O	0.12323345	0.11951985	0.74609475
O	0.1225633	0.11806935	0.8685513
O	0.12096075	0.11811695	0.99626355
O	0.1233708	0.2181033	0.1212221
O	0.12315225	0.21807295	0.2430722
O	0.1212302	0.2177209	0.36654625
O	0.1218962	0.21797165	0.4958393
O	0.1218425	0.2208128	0.62121695
O	0.1230317	0.22007685	0.7432697
O	0.12114295	0.21770255	0.86938965
O	0.1241217	0.22048845	0.99672685
O	0.11982535	0.32009745	0.1193077
O	0.12141575	0.318212	0.2455261
O	0.12248015	0.3199177	0.3716647
O	0.12371655	0.3209121	0.4950702
O	0.1230531	0.32027685	0.6197747
O	0.12046785	0.3189013	0.74492685
O	0.1230395	0.3198021	0.86966145
O	0.1201451	0.31768615	0.99497165
O	0.1223424	0.41908125	0.1203517
O	0.1253769	0.4178186	0.2456051
O	0.1226057	0.4207461	0.3699231
O	0.12225915	0.4184864	0.4954129
O	0.1219137	0.41955895	0.6207051
O	0.12191275	0.4203709	0.7438794
O	0.1224885	0.4200181	0.8685435
O	0.1216182	0.41811075	0.9957957
O	0.12222	0.5200774	0.1176153
O	0.1217343	0.5194024	0.245489
O	0.1232109	0.5180715	0.3708843
O	0.12464165	0.51846485	0.49589325
O	0.1221868	0.5174996	0.62202465
O	0.1197072	0.51800825	0.74373545
O	0.12152395	0.5167598	0.8690372
O	0.12153075	0.5173684	0.9931303
O	0.1195725	0.61587875	0.1215703
O	0.1223915	0.6166817	0.24639485
O	0.1243941	0.619821	0.3718558
O	0.120847	0.61674645	0.4974969
O	0.12248075	0.6170614	0.6191607
O	0.12033445	0.6201045	0.7455004
O	0.12124855	0.61872815	0.8696211
O	0.12213195	0.61735635	0.9942995
O	0.12182265	0.7198223	0.12110055
O	0.12401265	0.7190352	0.24542975
O	0.1237641	0.71994	0.3677386
O	0.1224563	0.71816925	0.4951644
O	0.12351795	0.7179061	0.6200843
O	0.12159185	0.71802585	0.745788
O	0.12392535	0.7205586	0.87141365
O	0.12353135	0.7158416	0.993149
O	0.1233368	0.82180225	0.11923565
O	0.12265545	0.8200697	0.24395565
O	0.1231926	0.81567235	0.367581
O	0.1241465	0.81850215	0.49632075
O	0.12556275	0.81995155	0.61899545
O	0.12091985	0.8187853	0.7445814
O	0.1212254	0.8183168	0.87016165
O	0.1225062	0.8193094	0.99761375
O	0.12028665	0.91753525	0.119089
O	0.12232385	0.91960955	0.2468149
O	0.1208008	0.91861175	0.36959965
O	0.1266273	0.9214394	0.4947146
O	0.12406525	0.92196365	0.6216159
O	0.12197085	0.92066805	0.74589585
O	0.12374095	0.92060125	0.86955705
O	0.12331395	0.91843245	0.99286685
O	0.22481145	0.02179565	0.11940805
O	0.22302395	0.01823475	0.2466889
O	0.22177805	0.0188212	0.3708548
O	0.2234864	0.01742435	0.4958184
O	0.2215901	0.01937605	0.6204152
O	0.22140545	0.01666235	0.7460359
O	0.2220011	0.01740125	0.8681631
O	0.22291055	0.01792275	0.9946022
O	0.2224255	0.1200516	0.1202345
O	0.22142865	0.1173613	0.2442382
O	0.22278345	0.1176358	0.3705881
O	0.2226695	0.11734375	0.4959561
O	0.2211023	0.1174637	0.62292995
O	0.22232625	0.1169836	0.74513795
O	0.222811	0.11686515	0.8693835
O	0.22289755	0.1193926	0.9961036
O	0.22338615	0.21844985	0.120461
O	0.22251745	0.21598345	0.24566675
O	0.2221336	0.2184724	0.3695712
O	0.2238812	0.21977465	0.4941941
O	0.221921	0.2148708	0.61982185
O	0.2227873	0.2166524	0.7431669
O	0.22089075	0.2190847	0.87057785
O	0.22156035	0.2192907	0.99586645
O	0.2222807	0.3190137	0.11998015
O	0.22407855	0.32134315	0.2443745
O	0.22335905	0.3206476	0.3719838
O	0.21944055	0.31750075	0.49639185
O	0.22234885	0.31922755	0.6185778
O	0.2224108	0.3198165	0.74533045
O	0.22013	0.31786065	0.8716767
O	0.22748005	0.33081225	0.99577145
O	0.22048565	0.4176486	0.11865255
O	0.2245173	0.4200125	0.2411655
O	0.2235322	0.41967915	0.3691774
O	0.2224643	0.41825	0.49623605
O	0.22386195	0.4170329	0.6183131
O	0.2188302	0.41974465	0.74682485
O	0.2237223	0.41961185	0.8704174
O	0.22138585	0.4200708	0.99604615
O	0.221963	0.5189112	0.1208106
O	0.2233112	0.5165925	0.24623475
O	0.22239725	0.51661765	0.37189595
O	0.22214125	0.51860875	0.49619925
O	0.2237639	0.51688175	0.6211295
O	0.2213549	0.51757455	0.7467421
O	0.2222788	0.5188823	0.8694237
O	0.22354735	0.5184689	0.993621
O	0.2238302	0.61840785	0.11948505
O	0.2229646	0.619977	0.246136
O	0.22072355	0.61966775	0.3703561
O	0.2220544	0.6180738	0.494366
O	0.22335395	0.6184068	0.6200599
O	0.22308475	0.61727315	0.74446365
O	0.2223623	0.61723575	0.8697984
O	0.22301225	0.6211625	0.99475275
O	0.22287595	0.7176309	0.12052235
O	0.223714	0.7149765	0.2438344
O	0.2230135	0.71622195	0.3703818
O	0.22159125	0.71873865	0.49505945
O	0.2253773	0.7197269	0.62105325
O	0.22279875	0.7189233	0.7450626
O	0.2207949	0.7193782	0.86991585
O	0.2213944	0.7179849	0.9955952
O	0.2250591	0.81996885	0.1222597
O	0.2228317	0.8192485	0.24640105
O	0.2237833	0.82140745	0.37140745
O	0.22544245	0.8171186	0.49439785
O	0.22141625	0.81874875	0.62075105
O	0.22254805	0.82034275	0.7462034
O	0.22418895	0.8183667	0.8709282
O	0.223946	0.8193038	0.99430485
O	0.2213039	0.917365	0.12042695
O	0.2228263	0.91667815	0.2457804
O	0.22193575	0.9193397	0.36984855
O	0.22366935	0.91727825	0.49435495
O	0.223599	0.91900145	0.6192059
O	0.2236213	0.9191851	0.7447085
O	0.22431305	0.9203879	0.8675357
O	0.2217924	0.92030735	0.993958
O	0.3220521	0.01946995	0.11993025
O	0.32330345	0.0179362	0.24397255
O	0.32354725	0.0198226	0.3688532
O	0.32363555	0.0183799	0.49730325
O	0.32170595	0.01885865	0.62111535
O	0.3228741	0.0178288	0.7454162
O	0.3227239	0.01781025	0.8691067
O	0.3234269	0.01839895	0.99465835
O	0.3268851	0.1210015	0.12151665
O	0.32225215	0.11673235	0.24719785
O	0.3231057	0.1180693	0.37041555
O	0.32268465	0.1188444	0.493321
O	0.3221602	0.1195286	0.61881855
O	0.32525855	0.11850615	0.74513715
O	0.32408265	0.115761	0.8714513
O	0.3226713	0.11809265	0.99477505
O	0.32207335	0.21435405	0.1211628
O	0.3233666	0.2176105	0.2454422
O	0.32326115	0.21583815	0.37079315
O	0.32126265	0.21555925	0.49512
O	0.32225265	0.217352	0.62039885
O	0.32258935	0.2200121	0.7458209
O	0.32218445	0.21946475	0.8699759
O	0.3224628	0.21911015	0.99817255
O	0.32308645	0.32243795	0.1188425
O	0.32049735	0.31788915	0.24579215
O	0.3223693	0.31685015	0.37030425
O	0.3202626	0.3184132	0.4949643
O	0.322284	0.3160554	0.62155605
O	0.3242407	0.31875055	0.7452965
O	0.3227393	0.3187181	0.86842575
O	0.3250131	0.320277	0.99405435
O	0.32037755	0.41688375	0.1218003
O	0.32399785	0.42009975	0.2424097
O	0.32135095	0.418722	0.36886055
O	0.324138	0.4176365	0.49485345
O	0.3231857	0.41895865	0.62209925
O	0.32234995	0.42022025	0.7441852
O	0.32010795	0.41686395	0.87163725
O	0.3238751	0.4168151	0.9963751
O	0.3239345	0.518626	0.12200495
O	0.3210389	0.5187816	0.24485015
O	0.3226598	0.51895815	0.37037595
O	0.3230085	0.51850275	0.4955715
O	0.3210929	0.51858385	0.61900885
O	0.3224619	0.51728175	0.7455082
O	0.32219715	0.5186016	0.86998515
O	0.32026325	0.51624265	0.99472475
O	0.32431325	0.61887385	0.1219435
O	0.3253092	0.6181515	0.24517375
O	0.32490265	0.61691445	0.3703278
O	0.32146135	0.61969715	0.4958916
O	0.32072795	0.61754545	0.6225213
O	0.32258985	0.61897895	0.7433497
O	0.3224518	0.6170789	0.8684481
O	0.32196435	0.6195622	0.99363095
O	0.323703	0.7196987	0.1212213
O	0.3235119	0.7188274	0.24447395
O	0.3249683	0.7152775	0.36940665
O	0.322995	0.72036795	0.49478015
O	0.32409935	0.7181261	0.62076425
O	0.3242494	0.71821775	0.74530355
O	0.3223413	0.71885415	0.86940675
O	0.32218395	0.7153381	0.9947483
O	0.3238056	0.8184913	0.12215015
O	0.32316775	0.81816315	0.24576405
O	0.32096845	0.8193436	0.3709124
O	0.3196841	0.81892305	0.4970129
O	0.32489195	0.82055425	0.6188039
O	0.3235272	0.8202915	0.74340775
O	0.3227814	0.82537095	0.87013005
O	0.3222668	0.81736255	0.99473355
O	0.32329985	0.91851725	0.1169646
O	0.3224699	0.92024245	0.24572295
O	0.3234751	0.91693345	0.36929255
O	0.3224469	0.9181545	0.4949324
O	0.32237055	0.918711	0.61935905
O	0.322162	0.9183776	0.7461707
O	0.32370205	0.92003805	0.8700744
O	0.3206019	0.92089665	0.99642315
O	0.4229655	0.01693465	0.1191676
O	0.4225564	0.0198845	0.2459542
O	0.42305005	0.02148285	0.37112455
O	0.4216532	0.0194347	0.4958842
O	0.42160125	0.01626775	0.61950805
O	0.422705	0.0157227	0.7467771
O	0.4235798	0.0182652	0.87103685
O	0.4220472	0.01784895	0.9923405
O	0.42382955	0.1163979	0.1194482
O	0.4213027	0.11742615	0.24554235
O	0.4226254	0.1175139	0.3696823
O	0.42225575	0.1202973	0.49557515
O	0.42180955	0.117301	0.6188098
O	0.42165725	0.11526515	0.744326
O	0.4216682	0.11488455	0.87213655
O	0.4213886	0.11878005	0.9944078
O	0.42086225	0.21803515	0.1205473
O	0.42501285	0.21808795	0.24446855
O	0.4223585	0.21756445	0.3678453
O	0.41853675	0.22264605	0.4751907
O	0.42295435	0.2176538	0.6203708
O	0.4247762	0.2187813	0.7450381
O	0.42126495	0.2196004	0.8718716
O	0.42133265	0.2158352	0.9968249
O	0.42544895	0.3190747	0.12156245
O	0.42253945	0.3192092	0.2451242
O	0.41937695	0.3189109	0.36910435
O	0.42301575	0.3185819	0.4951537
O	0.4219693	0.3189524	0.62129515
O	0.42314405	0.32036215	0.74602425
O	0.42204535	0.319306	0.87253605
O	0.4218511	0.31669005	0.99547405
O	0.4211003	0.4195084	0.1210146
O	0.42097345	0.41709245	0.2463534
O	0.423429	0.41745825	0.37012135
O	0.42386735	0.4189957	0.49686075
O	0.4240898	0.42136125	0.62083195
O	0.4222657	0.41808965	0.7479825
O	0.42187905	0.42092745	0.8697877
O	0.4237866	0.4183383	0.99557855
O	0.4216181	0.5164304	0.1212604
O	0.4248214	0.52003695	0.24367285
O	0.4224379	0.51952325	0.3706146
O	0.4234212	0.5198034	0.49398955
O	0.4220492	0.5167507	0.6207797
O	0.42054945	0.5165125	0.7474042
O	0.4213088	0.51989155	0.86940165
O	0.42262955	0.51836425	0.99616245
O	0.42311915	0.6177767	0.1225494
O	0.4228922	0.6177445	0.2454737
O	0.42215055	0.62045385	0.3700117
O	0.4206242	0.6187605	0.4939237
O	0.4228793	0.61803375	0.6187436
O	0.42360165	0.6190302	0.74582615
O	0.42392705	0.617033	0.8700997
O	0.42119595	0.62082575	0.997268
O	0.42413615	0.72017865	0.12041385
O	0.4241746	0.7191819	0.24671365
O	0.42247745	0.71897745	0.3696922
O	0.42328675	0.7196521	0.49672915
O	0.423973	0.7175446	0.61981935
O	0.4218843	0.71970665	0.7435391
O	0.42268235	0.71917835	0.8689238
O	0.42512785	0.71831455	0.99702175
O	0.4217058	0.8189034	0.1212859
O	0.4210999	0.8190254	0.24576285
O	0.42009645	0.81886895	0.37064095
O	0.4227051	0.82086065	0.49396145
O	0.4222664	0.8188138	0.61910835
O	0.42294615	0.8230815	0.7449577
O	0.42215065	0.8173123	0.8688546
O	0.421232	0.8189434	0.9921308
O	0.4207589	0.91747455	0.11965365
O	0.42211235	0.91790095	0.2478983
O	0.4224044	0.92040925	0.3702196
O	0.4225755	0.92009175	0.4940675
O	0.42075705	0.9165064	0.62253545
O	0.4210314	0.91753225	0.74667665
O	0.42271025	0.9171046	0.86899705
O	0.4217409	0.9212325	0.99539875
O	0.52317695	0.0170664	0.11946815
O	0.52041355	0.01755945	0.24539985
O	0.52117365	0.01755265	0.37007385
O	0.5243899	0.0182926	0.4947237
O	0.52237115	0.01855525	0.6199562
O	0.520677	0.0167279	0.74356745
O	0.5226174	0.0169093	0.86933045
O	0.52249755	0.01659295	0.99606615
O	0.5224382	0.1157858	0.121891
O	0.52369375	0.11693505	0.2438174
O	0.52317665	0.11795875	0.3698345
O	0.5228233	0.11632215	0.4942931
O	0.52115205	0.117306	0.61964425
O	0.52349595	0.11763825	0.7458391
O	0.52251725	0.11734075	0.8697992
O	0.5235017	0.11900085	0.9936692
O	0.52254245	0.2174672	0.12091825
O	0.52260325	0.2187691	0.247018
O	0.5221735	0.21744065	0.37104275
O	0.52293235	0.21947975	0.4959113
O	0.52440245	0.218925	0.622761
O	0.52306115	0.2178901	0.72901585
O	0.51558775	0.21904415	0.8537297
O	0.52130465	0.2141785	0.9972718
O	0.52396885	0.319079	0.12213735
O	0.5241077	0.3176146	0.2464161
O	0.5235947	0.3178462	0.3717465
O	0.52130025	0.3171605	0.4971264
O	0.5232504	0.3189005	0.61970575
O	0.5225168	0.31854865	0.74403145
O	0.5222668	0.318156	0.86838595
O	0.5235154	0.32253345	0.99570345
O	0.5232448	0.4207247	0.11969625
O	0.5248539	0.4187518	0.24462245
O	0.52426315	0.4213477	0.3702826
O	0.5233513	0.41864165	0.49608815
O	0.52774985	0.4257038	0.6205584
O	0.5228857	0.41940975	0.74738805
O	0.5242635	0.4186936	0.86747375
O	0.5233822	0.4182203	0.99681695
O	0.52304675	0.51761445	0.1232045
O	0.52252945	0.51952545	0.2451784
O	0.521689	0.51714465	0.3726607
O	0.52468345	0.5192695	0.495121
O	0.5215187	0.5188897	0.6195664
O	0.52387715	0.51810145	0.74417815
O	0.52429075	0.5188438	0.8708809
O	0.52246115	0.5170541	0.99760885
O	0.5233188	0.6187456	0.12033855
O	0.5231562	0.61744995	0.2453608
O	0.52073525	0.6182021	0.3694764
O	0.52295685	0.6171081	0.4940102
O	0.52265155	0.6171636	0.6223019
O	0.5251032	0.6198646	0.746025
O	0.52194505	0.6149874	0.86871825
O	0.5250071	0.6190229	0.99430935
O	0.52435255	0.71975995	0.12213915
O	0.52303915	0.71989265	0.2449461
O	0.5217461	0.71793645	0.3699195
O	0.52137615	0.71963115	0.49543685
O	0.52314795	0.71885415	0.6165682
O	0.52169945	0.71484585	0.7442177
O	0.52156425	0.7212896	0.868437
O	0.52326925	0.7199181	0.9962104
O	0.5229578	0.81985685	0.1225254
O	0.5224727	0.81966365	0.2455787
O	0.5211321	0.8182357	0.3681905
O	0.5231702	0.82005525	0.49405235
O	0.5211932	0.81848215	0.61661645
O	0.5234921	0.8188664	0.744915
O	0.52333095	0.8202707	0.8698736
O	0.52414625	0.8199583	0.99572375
O	0.52289685	0.9186344	0.1219449
O	0.5218059	0.9184779	0.24473145
O	0.5229717	0.9194426	0.36823465
O	0.52243455	0.9197376	0.4930281
O	0.52112035	0.9189524	0.62226625
O	0.52332605	0.92152735	0.74466095
O	0.5226524	0.92117075	0.8711206
O	0.51919775	0.90416525	0.0043677
O	0.62194705	0.01894785	0.11995575
O	0.62222235	0.0183284	0.24532315
O	0.6215352	0.0190984	0.36900765
O	0.62079775	0.01782325	0.4943706
O	0.620617	0.01665155	0.6208454
O	0.6231156	0.01922815	0.74575645
O	0.62330535	0.01955825	0.8706484
O	0.6230207	0.01843495	0.9959495
O	0.6235541	0.1175897	0.11817905
O	0.6215219	0.1187189	0.24444185
O	0.6219742	0.11730465	0.36934495
O	0.621883	0.11844285	0.4930519
O	0.62222855	0.1185272	0.6203323
O	0.6246546	0.1210126	0.74424115
O	0.62461465	0.118997	0.87085035
O	0.6222232	0.11852135	0.9939313
O	0.62296415	0.21833915	0.11788865
O	0.62196865	0.2191312	0.2475977
O	0.6228417	0.21777805	0.3724736
O	0.62129315	0.21674125	0.4956506
O	0.6229286	0.21971225	0.6205821
O	0.6202605	0.21911535	0.7458303
O	0.6232903	0.21912145	0.87019425
O	0.6243087	0.2175926	0.9943669
O	0.6248111	0.32197425	0.11883015
O	0.6227353	0.319283	0.2445108
O	0.62124195	0.3186571	0.37139255
O	0.62119655	0.3184426	0.49715005
O	0.62128035	0.31927565	0.6199369
O	0.62427185	0.31961445	0.74437055
O	0.61993485	0.31951185	0.86972965
O	0.6227103	0.32055695	0.996544
O	0.62311695	0.4183346	0.1210426
O	0.62172075	0.4183494	0.2452482
O	0.62324385	0.41846515	0.3716088
O	0.6224444	0.41847115	0.4935561
O	0.62183815	0.41799065	0.6210639
O	0.62212025	0.4211196	0.74473055
O	0.62081405	0.41970495	0.871553
O	0.62235275	0.41924465	0.99559155
O	0.6225423	0.52046565	0.1218368
O	0.62342715	0.5193009	0.2464488
O	0.6217883	0.5183712	0.37154905
O	0.6217174	0.51785815	0.4970153
O	0.62475325	0.5174534	0.6204328
O	0.62424565	0.51884225	0.7466438
O	0.6223543	0.51968975	0.8690692
O	0.6238682	0.5175966	0.99331755
O	0.6229814	0.61792415	0.11925455
O	0.6207159	0.6172396	0.24484455
O	0.62249165	0.6204982	0.36989765
O	0.6227169	0.62018205	0.4959411
O	0.6226483	0.61542265	0.6195197
O	0.6232217	0.622004	0.74459395
O	0.62129545	0.6186159	0.87051805
O	0.623957	0.61765935	0.99547075
O	0.6209966	0.7177987	0.1210413
O	0.62235935	0.71633675	0.2462869
O	0.62121375	0.71745265	0.37009795
O	0.62369785	0.7229156	0.49556085
O	0.6198068	0.71819405	0.62160655
O	0.62201065	0.7200609	0.7473832
O	0.6229243	0.71562085	0.8682434
O	0.6220162	0.71765515	0.99480665
O	0.62476335	0.81649575	0.12102005
O	0.6236454	0.8188697	0.24573735
O	0.6221911	0.82025355	0.37255705
O	0.62193235	0.82043855	0.49132605
O	0.62222305	0.819187	0.6205702
O	0.6253641	0.81884845	0.7449987
O	0.62307295	0.8202784	0.8710975
O	0.62500175	0.818397	0.9938844
O	0.62297205	0.91824435	0.1219455
O	0.62180455	0.91985255	0.2448855
O	0.6219697	0.91848725	0.36951545
O	0.6216786	0.91777505	0.4933378
O	0.620898	0.9189703	0.6202162
O	0.62014435	0.9189567	0.7458088
O	0.62253815	0.9190176	0.87122505
O	0.6205335	0.91902155	0.993609
O	0.7237091	0.01805075	0.1209246
O	0.7204449	0.0205009	0.24508635
O	0.72053385	0.01631505	0.36945585
O	0.72093495	0.019419	0.49743795
O	0.72161395	0.01852935	0.62212155
O	0.7207495	0.01798865	0.7437301
O	0.724007	0.01812	0.87075435
O	0.7251176	0.0205859	0.99397225
O	0.7214114	0.1173666	0.11946
O	0.7227661	0.11784825	0.24553325
O	0.720703	0.1178288	0.3716193
O	0.7226916	0.1174616	0.4946615
O	0.71381065	0.10558735	0.6252744
O	0.72215815	0.11869945	0.7453597
O	0.7224202	0.1174451	0.87025215
O	0.72077115	0.11884195	0.9952845
O	0.72289835	0.2176056	0.11860335
O	0.72066215	0.21633845	0.2451027
O	0.72101555	0.2176596	0.3682198
O	0.72206725	0.21728225	0.49508675
O	0.7228797	0.2184505	0.6188761
O	0.7218083	0.2198955	0.7456918
O	0.72280555	0.2197877	0.87019175
O	0.7242116	0.22115715	0.9932304
O	0.7237578	0.3180163	0.11990405
O	0.72179655	0.319231	0.2444862
O	0.7226955	0.31728455	0.3694139
O	0.72090895	0.3203476	0.49569325
O	0.7197731	0.3172862	0.6206251
O	0.72385555	0.31993995	0.74416875
O	0.7231888	0.31643505	0.8691316
O	0.7235546	0.31910575	0.99363575
O	0.72297135	0.41693735	0.1214095
O	0.72101385	0.41688735	0.24312155
O	0.72096155	0.4180038	0.3710109
O	0.72388535	0.42067675	0.4957602
O	0.72109065	0.41938795	0.61997625
O	0.7219001	0.41795325	0.74505995
O	0.7205217	0.4155508	0.8678015
O	0.7221389	0.42071745	0.9937687
O	0.72320325	0.5179256	0.12069445
O	0.72039505	0.5191532	0.2460349
O	0.7228184	0.51959635	0.36931085
O	0.72199815	0.51790375	0.49375205
O	0.7230174	0.5163198	0.62110485
O	0.72082285	0.5168689	0.7452834
O	0.72352135	0.52014205	0.86808455
O	0.7221168	0.5182681	0.99466975
O	0.7222227	0.61669195	0.11993295
O	0.72098805	0.6167466	0.2442354
O	0.72277305	0.6192963	0.3698875
O	0.72084865	0.61883595	0.49478045
O	0.7258715	0.6167018	0.6196803
O	0.7233257	0.61826525	0.7464814
O	0.72427805	0.6203404	0.8724862
O	0.7229237	0.6176353	0.99433905
O	0.7202961	0.71733875	0.11982325
O	0.7220926	0.71867615	0.24456005
O	0.71991245	0.71842315	0.36866335
O	0.72144345	0.71786355	0.49393745
O	0.72279565	0.7185129	0.61772795
O	0.72259715	0.71839505	0.74718295
O	0.72539475	0.71896805	0.8697449
O	0.7205667	0.71932235	0.9955294
O	0.72094215	0.8175107	0.118989
O	0.7215674	0.81888305	0.2447264
O	0.7202141	0.81792105	0.3698101
O	0.7222067	0.8208261	0.49637835
O	0.7234255	0.8169109	0.61834285
O	0.7237859	0.81886535	0.74401785
O	0.72111465	0.8173344	0.87027895
O	0.72223915	0.81888395	0.99544035
O	0.7227285	0.9184171	0.1203687
O	0.72080055	0.9191604	0.2444823
O	0.7238037	0.91952065	0.36919795
O	0.7198815	0.9204472	0.4960922
O	0.72328905	0.9174525	0.62163315
O	0.7233297	0.9186332	0.7460831
O	0.72070915	0.91821985	0.8711916
O	0.7239547	0.91802345	0.99757845
O	0.82173085	0.0191023	0.12112835
O	0.82062345	0.01746735	0.2468525
O	0.8217286	0.01820415	0.36810355
O	0.82136345	0.0186057	0.49653555
O	0.82203805	0.01648945	0.61992705
O	0.8239205	0.0174994	0.74585525
O	0.8227929	0.0207718	0.8705287
O	0.8221757	0.0161618	0.9951197
O	0.8214103	0.1198998	0.1237518
O	0.82311575	0.1190165	0.24468845
O	0.82133975	0.1164492	0.36888245
O	0.8215434	0.1179394	0.4945819
O	0.82366555	0.1202057	0.6204016
O	0.82180145	0.1184379	0.74233695
O	0.82359775	0.1213486	0.87148115
O	0.8228857	0.1201629	0.99615705
O	0.82134025	0.21886905	0.119212
O	0.8239339	0.21826985	0.244646
O	0.82108065	0.21776275	0.3707987
O	0.82171115	0.21691185	0.49671435
O	0.822098	0.2201309	0.62068325
O	0.823502	0.21888455	0.74397155
O	0.82292535	0.21974845	0.8690863
O	0.82133205	0.21963205	0.99649965
O	0.8219933	0.3194865	0.12021635
O	0.8214838	0.31850065	0.24830005
O	0.8220575	0.3181489	0.3690879
O	0.82187875	0.3209485	0.4957427
O	0.82440465	0.3220299	0.61956245
O	0.8223713	0.3194923	0.7429166
O	0.8225931	0.3186903	0.86876725
O	0.822924	0.3186103	0.99616415
O	0.82214415	0.41940685	0.11818525
O	0.82303935	0.419265	0.24611445
O	0.8226012	0.41947595	0.36922695
O	0.8208368	0.41715985	0.4962566
O	0.82355755	0.418012	0.6212046
O	0.8217909	0.4182344	0.74409415
O	0.82166375	0.41976355	0.8690643
O	0.8251122	0.41925125	0.9933786
O	0.8235153	0.52041805	0.1212792
O	0.8234138	0.5206432	0.24413025
O	0.82369945	0.5196867	0.36998305
O	0.8202472	0.5172756	0.49633975
O	0.82469255	0.5199488	0.6205537
O	0.822318	0.5175868	0.74432855
O	0.82345515	0.51843005	0.87245525
O	0.82422165	0.5176487	0.9954351
O	0.82232805	0.617902	0.1195583
O	0.82374325	0.61802195	0.243248
O	0.82100285	0.6171445	0.36881915
O	0.8220916	0.616447	0.49441915
O	0.82262905	0.6195406	0.6198768
O	0.8214333	0.6180437	0.74480165
O	0.8202668	0.6182443	0.870323
O	0.8230665	0.61867245	0.99451525
O	0.82101125	0.71966765	0.118745
O	0.82104875	0.7150501	0.24805055
O	0.82235945	0.7206326	0.37062125
O	0.82214835	0.7198046	0.4949123
O	0.82028325	0.71560705	0.6219005
O	0.82290415	0.71772085	0.74695285
O	0.8233497	0.7163592	0.87011915
O	0.8217105	0.71818685	0.99526215
O	0.8230926	0.82033695	0.121914
O	0.8219494	0.81931455	0.24427675
O	0.82326445	0.82099915	0.36854415
O	0.82293695	0.8165	0.49669115
O	0.8214981	0.81610835	0.6202133
O	0.82320265	0.817616	0.74401365
O	0.82377395	0.81885285	0.87111495
O	0.8242394	0.8201805	0.9962415
O	0.82106885	0.91815255	0.1204428
O	0.82056895	0.91837575	0.2448874
O	0.8198546	0.91974055	0.36974815
O	0.8209087	0.9182822	0.4925992
O	0.82189035	0.9200556	0.6190881
O	0.8223117	0.91924735	0.7477093
O	0.8205789	0.92070695	0.87058725
O	0.82343865	0.91975955	0.99619675
O	0.92215995	0.01775675	0.11913065
O	0.9226873	0.0182037	0.2436548
O	0.92193945	0.0182049	0.36826035
O	0.92350225	0.0183907	0.49650645
O	0.92238435	0.01655115	0.61785815
O	0.92208565	0.01931545	0.7455132
O	0.922881	0.01833815	0.87204975
O	0.92289455	0.01948325	0.9951449
O	0.9216607	0.1199552	0.12151155
O	0.92208905	0.118654	0.2449433
O	0.9232739	0.11997875	0.37005165
O	0.9248107	0.1161377	0.49848955
O	0.92311655	0.1170388	0.61988625
O	0.9249845	0.12048705	0.745457
O	0.92390315	0.11875465	0.8707003
O	0.9202976	0.11740925	0.99430675
O	0.91469395	0.22190255	0.10609615
O	0.9235519	0.21424305	0.24274725
O	0.92120275	0.21925625	0.3714651
O	0.9225663	0.2196068	0.4952758
O	0.9239284	0.21725105	0.6208562
O	0.92275215	0.2200188	0.74342455
O	0.9223861	0.22041945	0.8691263
O	0.9228855	0.21752305	0.9962682
O	0.9208116	0.3183105	0.118934
O	0.9219845	0.3194619	0.2441563
O	0.9209298	0.31982465	0.36995685
O	0.92288245	0.31991325	0.49505825
O	0.9243419	0.32095295	0.61897315
O	0.9197439	0.32310495	0.72348555
O	0.91851155	0.31995985	0.87186995
O	0.9206896	0.3188424	0.9958578
O	0.9206721	0.41773915	0.1215732
O	0.9219829	0.4173383	0.2430926
O	0.9199263	0.41779635	0.37099035
O	0.92279835	0.4183802	0.4957965
O	0.9217988	0.41638945	0.6213481
O	0.92407495	0.4190414	0.7438298
O	0.92230535	0.41809125	0.87117625
O	0.92146305	0.41988325	0.99456
O	0.92144455	0.51890185	0.1202794
O	0.92123555	0.51866965	0.2448236
O	0.9232733	0.51845845	0.37013075
O	0.92537575	0.52230135	0.49581515
O	0.9200937	0.5184626	0.6201957
O	0.9226702	0.51696355	0.7430972
O	0.92157705	0.51724625	0.8704142
O	0.92335365	0.5187586	0.99223
O	0.9211475	0.6208131	0.1206031
O	0.9232595	0.6211521	0.24416345
O	0.92381025	0.61835245	0.36963245
O	0.922839	0.61819885	0.49608585
O	0.92366645	0.6203235	0.6201454
O	0.9233757	0.6178053	0.745477
O	0.92379385	0.6180237	0.86935145
O	0.9195017	0.61858335	0.99481105
O	0.92073835	0.71777885	0.1204642
O	0.92270165	0.71886665	0.2460333
O	0.9223965	0.7160745	0.3705148
O	0.9213102	0.71906815	0.4945815
O	0.9226725	0.71681445	0.61882
O	0.9229781	0.71832525	0.7456919
O	0.9236515	0.7180152	0.86878285
O	0.9224138	0.71843545	0.9960352
O	0.92370235	0.8191488	0.1184814
O	0.9227335	0.8192656	0.24587975
O	0.9230288	0.81877395	0.3673223
O	0.92244205	0.817043	0.4948376
O	0.9245178	0.8182869	0.6191951
O	0.92474395	0.8197563	0.746125
O	0.9219567	0.8160924	0.87110105
O	0.9220766	0.81884575	0.99481795
O	0.92137145	0.9177692	0.12127695
O	0.9216396	0.9149816	0.24405655
O	0.92413355	0.9206014	0.3689133
O	0.9225446	0.91840955	0.4928006
O	0.9236872	0.9177026	0.62059615
O	0.9220574	0.9190853	0.74692305
O	0.9219582	0.91767915	0.8708067
O	0.92156445	0.9179786	0.9974275
O	0.02614715	0.0683268	0.06520255
O	0.04363985	0.0577813	0.18712445
O	0.02739725	0.0714195	0.31670085
O	0.02820345	0.06678	0.4434256
O	0.02813605	0.0679684	0.56985385
O	0.02869355	0.0694149	0.69148205
O	0.02914965	0.0686769	0.81586805
O	0.0263318	0.06889955	0.9425495
O	0.0259714	0.16905945	0.06560785
O	0.0246314	0.16717955	0.192203
O	0.02696735	0.1708302	0.31677875
O	0.02606545	0.166718	0.44138805
O	0.0271293	0.16957525	0.5670818
O	0.02674435	0.16906815	0.690492
O	0.02740245	0.17137525	0.8167187
O	0.0270073	0.1693118	0.9429652
O	0.02892885	0.2700114	0.06644975
O	0.0285503	0.26889995	0.1915218
O	0.0281013	0.27092425	0.31855875
O	0.02758015	0.2689057	0.442983
O	0.0272642	0.26782345	0.56796895
O	0.0275753	0.2695734	0.6930043
O	0.02647405	0.2682693	0.81634845
O	0.02596445	0.27031685	0.94363565
O	0.02730675	0.3688448	0.06721105
O	0.0266662	0.3701072	0.1919727
O	0.02667515	0.3699121	0.31741595
O	0.0280075	0.37019295	0.4425021
O	0.02676765	0.37086935	0.5663502
O	0.0288892	0.3680986	0.692281
O	0.02131375	0.3775937	0.81438695
O	0.02623705	0.3711706	0.9407668
O	0.0258581	0.4688505	0.06756155
O	0.024839	0.47034505	0.1917481
O	0.0266758	0.4685829	0.3195154
O	0.0298685	0.46782835	0.44237045
O	0.02540855	0.46834555	0.5698726
O	0.02710905	0.4698273	0.6915464
O	0.02826815	0.46727605	0.816507
O	0.0273966	0.47064775	0.9417051
O	0.0266603	0.5699966	0.06865305
O	0.0277554	0.56802895	0.19028055
O	0.0269003	0.5704015	0.320069
O	0.0255868	0.5695559	0.44258775
O	0.02752555	0.57005655	0.56590665
O	0.0272324	0.57092125	0.69102155
O	0.0286606	0.5717877	0.81854085
O	0.02559045	0.56790495	0.9430217
O	0.02723335	0.67129735	0.0668154
O	0.0267481	0.6709385	0.1907953
O	0.0274972	0.66830615	0.31806725
O	0.0259566	0.66935725	0.4412299
O	0.02919475	0.66753915	0.5685828
O	0.0277636	0.6674245	0.6939574
O	0.02900875	0.66902035	0.81742255
O	0.0239782	0.66840535	0.94079945
O	0.0269446	0.7685181	0.06696475
O	0.02555865	0.76708735	0.18995865
O	0.02593375	0.767709	0.3189149
O	0.02893505	0.77152085	0.4406605
O	0.02704535	0.7716981	0.5657514
O	0.0278256	0.77085205	0.6928355
O	0.02524775	0.7723295	0.8149567
O	0.02844445	0.7699411	0.94084525
O	0.02535145	0.87212355	0.0683593
O	0.02768075	0.86957165	0.1922553
O	0.02770725	0.87280895	0.3181099
O	0.02689625	0.86801905	0.440762
O	0.0294967	0.869709	0.56670485
O	0.0275957	0.8691772	0.6919142
O	0.0279989	0.86831325	0.81651175
O	0.02515825	0.86925475	0.94287875
O	0.02641935	0.9689326	0.06698135
O	0.02626975	0.9693833	0.1914543
O	0.02589065	0.97008285	0.3161784
O	0.02683325	0.96921785	0.44289655
O	0.0299631	0.9664071	0.56567775
O	0.03030725	0.9679587	0.69289825
O	0.0269068	0.97060455	0.81809905
O	0.0281685	0.9686022	0.94083715
O	0.12564525	0.07487885	0.066118
O	0.12594125	0.06858425	0.19291085
O	0.1281549	0.06991715	0.3160989
O	0.1279754	0.0685497	0.44189535
O	0.1268427	0.07053275	0.5691349
O	0.1278667	0.06848715	0.69006015
O	0.1280696	0.0695583	0.81749345
O	0.12611705	0.0677983	0.94265935
O	0.1267539	0.17170125	0.06816495
O	0.1246546	0.1698495	0.1924584
O	0.1267082	0.1689663	0.3160612
O	0.12716575	0.16929215	0.44300685
O	0.1271163	0.1695242	0.56626915
O	0.1272117	0.1707468	0.692102
O	0.12658015	0.16916505	0.81785005
O	0.1264022	0.17027425	0.94331855
O	0.12625525	0.2711725	0.06656915
O	0.12427355	0.2709856	0.19262775
O	0.12650195	0.26989515	0.3181383
O	0.12580415	0.26930675	0.44414275
O	0.127411	0.27020695	0.5669776
O	0.13197575	0.27401355	0.7096993
O	0.1257827	0.2690222	0.8166532
O	0.126894	0.26955565	0.94111365
O	0.12893515	0.3689116	0.0687712
O	0.1287506	0.3679498	0.193144
O	0.12662635	0.3685007	0.31748765
O	0.1274063	0.3695339	0.442787
O	0.12690595	0.37017365	0.56769865
O	0.12583195	0.3684452	0.6914691
O	0.12541035	0.37124445	0.8169699
O	0.1270108	0.3708877	0.94105185
O	0.1267283	0.46817265	0.0656475
O	0.1265749	0.46997095	0.1934675
O	0.1275589	0.4680123	0.31659645
O	0.12656155	0.46983825	0.44294445
O	0.1270244	0.46740205	0.5673798
O	0.12750305	0.4708651	0.69204205
O	0.1254414	0.4686483	0.81807055
O	0.1280829	0.46760245	0.94232845
O	0.1268693	0.5707549	0.0647179
O	0.1282972	0.5684068	0.1921785
O	0.12781175	0.56704	0.31774035
O	0.125321	0.5678493	0.4439341
O	0.12638155	0.5691466	0.5662062
O	0.1258602	0.56662795	0.691699
O	0.1259083	0.569392	0.8129961
O	0.12261645	0.56355905	0.95042725
O	0.1268862	0.6720601	0.06795205
O	0.12384125	0.669034	0.1904213
O	0.12902785	0.66935195	0.3180304
O	0.12696685	0.6674453	0.44230825
O	0.12857525	0.6707309	0.56940525
O	0.12690585	0.6690678	0.6936434
O	0.1267375	0.6664432	0.81799255
O	0.1268973	0.66899575	0.94051825
O	0.127691	0.7696744	0.06585305
O	0.12588685	0.76929615	0.19266575
O	0.1280739	0.7718602	0.31914695
O	0.12830875	0.7697268	0.44014825
O	0.12702425	0.77004275	0.56759805
O	0.1284901	0.7645004	0.6938488
O	0.1275463	0.7689802	0.8171398
O	0.1266737	0.768771	0.9407945
O	0.12520805	0.8677193	0.06795635
O	0.12484455	0.87272665	0.19276335
O	0.1275139	0.87115905	0.31979955
O	0.1272702	0.87091475	0.44120985
O	0.12720955	0.8693867	0.5665096
O	0.1280946	0.86783815	0.6922492
O	0.1257191	0.8707348	0.8168271
O	0.12690165	0.86888625	0.9403848
O	0.12617895	0.97037435	0.06550975
O	0.12741775	0.968563	0.1918168
O	0.12899175	0.97022195	0.31659845
O	0.128122	0.97103705	0.44339345
O	0.12812755	0.96902365	0.5676131
O	0.1288196	0.9703495	0.69216835
O	0.1274234	0.969233	0.81646245
O	0.12655585	0.9706209	0.94161095
O	0.227798	0.07012055	0.06622355
O	0.2281844	0.0675847	0.1949481
O	0.2278494	0.06861715	0.31790345
O	0.22793055	0.0674671	0.4423763
O	0.22782595	0.0694467	0.5653267
O	0.22680395	0.0703406	0.69180835
O	0.22534995	0.068004	0.81639355
O	0.2264337	0.07048825	0.94297255
O	0.2242162	0.16950545	0.06703285
O	0.22616	0.1709302	0.19091165
O	0.22972185	0.17061675	0.3188892
O	0.22917415	0.1666848	0.4423706
O	0.2264438	0.1731625	0.5671487
O	0.2284185	0.1734539	0.69131965
O	0.2251958	0.17149875	0.8193142
O	0.2270223	0.17163675	0.9414372
O	0.2272322	0.2672658	0.06715965
O	0.2255646	0.26647515	0.19320485
O	0.2267353	0.27291025	0.31892645
O	0.22692005	0.26705145	0.44137485
O	0.22924605	0.2711002	0.56653815
O	0.2263378	0.26926525	0.6923986
O	0.22771445	0.26937705	0.81620125
O	0.228087	0.27175345	0.94206
O	0.22839505	0.36979395	0.0665798
O	0.2290789	0.3716311	0.1918509
O	0.22614305	0.36812935	0.3183364
O	0.2274916	0.3702656	0.44343735
O	0.2270631	0.3725319	0.5677788
O	0.22724995	0.37014975	0.6923781
O	0.22756505	0.3724366	0.8177998
O	0.22653125	0.3682335	0.9407906
O	0.22625095	0.4697919	0.0653999
O	0.2280044	0.46901395	0.19361215
O	0.22673335	0.4698166	0.3179463
O	0.22715	0.4695325	0.4415318
O	0.2256275	0.47092235	0.5678698
O	0.22742255	0.46972335	0.6918565
O	0.22534455	0.4695367	0.8168606
O	0.22632955	0.4693288	0.94158475
O	0.2271984	0.57030855	0.06859235
O	0.22700025	0.56939685	0.1923859
O	0.22698865	0.5677688	0.31816735
O	0.22780915	0.5694839	0.4411177
O	0.2274734	0.56550235	0.56502635
O	0.22562485	0.5655466	0.6908963
O	0.2290624	0.569466	0.8172703
O	0.22426895	0.5700297	0.94147435
O	0.2270726	0.66942165	0.06677425
O	0.2263019	0.6674508	0.1927121
O	0.2306636	0.66140195	0.3133994
O	0.22657635	0.66764615	0.4413948
O	0.22449975	0.6699885	0.56816415
O	0.22769015	0.6677376	0.6890461
O	0.2248154	0.669591	0.81638715
O	0.22740605	0.66653645	0.9414506
O	0.22865635	0.771669	0.0691291
O	0.2396742	0.75482815	0.19042325
O	0.22645295	0.7693148	0.31492685
O	0.2294984	0.76854105	0.44295205
O	0.22594545	0.7688829	0.5653719
O	0.2263811	0.77227775	0.69218
O	0.22609925	0.7703786	0.8181827
O	0.2257277	0.76610965	0.94113235
O	0.22723805	0.8687663	0.06582045
O	0.22669485	0.8700547	0.1933428
O	0.2291892	0.8694668	0.315497
O	0.22755045	0.87073485	0.44392985
O	0.22769735	0.87136605	0.5676161
O	0.22669605	0.8683726	0.69319995
O	0.22473165	0.8716987	0.8158271
O	0.22827425	0.86879135	0.94494395
O	0.2270759	0.97145365	0.06645215
O	0.2269973	0.9697686	0.1914391
O	0.2283527	0.9689869	0.3174135
O	0.2265767	0.9684255	0.44119825
O	0.22907005	0.9678514	0.5675889
O	0.2269521	0.97038245	0.69163475
O	0.2259034	0.9716708	0.817294
O	0.22557795	0.9695566	0.939446
O	0.3270736	0.07040025	0.0667279
O	0.32744845	0.0678094	0.1922645
O	0.3285033	0.0666482	0.31989835
O	0.3270443	0.06909555	0.44199705
O	0.32877245	0.0676268	0.56667845
O	0.3267794	0.07070655	0.694866
O	0.32625175	0.06658495	0.81535915
O	0.32453125	0.0696408	0.94116785
O	0.32546455	0.1693673	0.0661511
O	0.32879635	0.16774835	0.1917362
O	0.3266081	0.1687265	0.3161036
O	0.32752465	0.1709878	0.44366235
O	0.3261348	0.16584575	0.5674623
O	0.3257214	0.17228235	0.6915686
O	0.3275514	0.1715443	0.8144136
O	0.3267106	0.17117005	0.9391883
O	0.32784585	0.2706218	0.0676993
O	0.32848	0.26598935	0.19183675
O	0.32886455	0.26898065	0.317259
O	0.32762345	0.26870735	0.4412201
O	0.3277997	0.2725016	0.5658929
O	0.3271699	0.27118785	0.69190015
O	0.32606845	0.26996435	0.81539695
O	0.3265907	0.26851345	0.94222245
O	0.3264913	0.3699284	0.0680589
O	0.3276775	0.3680533	0.1912884
O	0.3281957	0.3697927	0.31693945
O	0.3288574	0.36828895	0.44338495
O	0.32906515	0.37119035	0.5665223
O	0.3275093	0.3664989	0.69339595
O	0.3262931	0.3687007	0.8168021
O	0.32299445	0.36829895	0.95911665
O	0.3267606	0.46873865	0.0675002
O	0.3280825	0.47069445	0.1919191
O	0.32623745	0.4718554	0.3173916
O	0.32879945	0.47101935	0.44315235
O	0.32676485	0.4717074	0.5674881
O	0.3272545	0.4693324	0.69307705
O	0.3252636	0.4706766	0.8175659
O	0.3258016	0.47042355	0.94058695
O	0.32708225	0.5686536	0.0657261
O	0.32789445	0.568199	0.19148125
O	0.3272099	0.56891255	0.3167321
O	0.3290626	0.57070925	0.4430869
O	0.3265449	0.5671327	0.5684158
O	0.3258827	0.57156155	0.69210685
O	0.32665415	0.568583	0.8151906
O	0.32623775	0.5687018	0.94152545
O	0.3267879	0.6692756	0.06741995
O	0.33073355	0.66767365	0.2096574
O	0.3258604	0.66909825	0.31598645
O	0.3265175	0.6698718	0.4422781
O	0.33502395	0.65238495	0.5554674
O	0.32606295	0.67112815	0.6910943
O	0.3259374	0.66838795	0.81704415
O	0.3264821	0.6691729	0.9427607
O	0.32872505	0.76836895	0.06751395
O	0.3295037	0.7726453	0.193659
O	0.3273749	0.77020145	0.3174174
O	0.32781955	0.7708715	0.4422395
O	0.3268203	0.7728771	0.56805315
O	0.3257333	0.76868425	0.693022
O	0.3270357	0.77050425	0.8167397
O	0.3274783	0.77026835	0.9412301
O	0.3261404	0.87159485	0.06491135
O	0.32843555	0.8700849	0.19075315
O	0.3271052	0.87033075	0.31816075
O	0.3277384	0.86789885	0.4414905
O	0.3278286	0.8693511	0.5655099
O	0.32863535	0.8705828	0.6922296
O	0.32836095	0.87026545	0.8153191
O	0.32678455	0.8692222	0.9434697
O	0.3257892	0.96854985	0.0677307
O	0.32922195	0.9694138	0.1936309
O	0.32712425	0.9695375	0.31434
O	0.32657515	0.96939315	0.44308105
O	0.32642	0.96933395	0.5681944
O	0.32770995	0.96831685	0.691427
O	0.32832305	0.9691233	0.8172356
O	0.327934	0.9698312	0.94370305
O	0.4270735	0.06972575	0.0682243
O	0.42735275	0.0703868	0.1916845
O	0.42432025	0.07113745	0.3144937
O	0.4284369	0.06842515	0.44050265
O	0.42674605	0.06884475	0.56618525
O	0.42593605	0.06911935	0.6926423
O	0.4278925	0.0693746	0.81797975
O	0.4261582	0.0691104	0.9405751
O	0.42681135	0.1678684	0.0664377
O	0.42776995	0.16936075	0.1926854
O	0.4262296	0.16905755	0.3168566
O	0.42861035	0.1678383	0.439854
O	0.4273386	0.16630935	0.5656238
O	0.4259806	0.16784525	0.69142425
O	0.42701885	0.1699569	0.81836195
O	0.4231573	0.17187305	0.9416474
O	0.42429095	0.2699068	0.06724195
O	0.42670655	0.26751615	0.1910583
O	0.42640135	0.2689343	0.31938485
O	0.42787305	0.2704102	0.44163635
O	0.4258146	0.2708904	0.566227
O	0.42844535	0.2679674	0.6943758
O	0.4290255	0.2747214	0.8184004
O	0.4281563	0.26819055	0.9412226
O	0.4304199	0.37158605	0.06728785
O	0.428849	0.3701938	0.19228475
O	0.42851375	0.36871545	0.31743695
O	0.4279346	0.37149335	0.44273455
O	0.4281439	0.3691408	0.56502135
O	0.427636	0.37177575	0.69077095
O	0.42762395	0.36850545	0.81770935
O	0.42535245	0.36927405	0.9418282
O	0.42496015	0.4707563	0.06540855
O	0.4276312	0.4695178	0.1909146
O	0.4263879	0.46842955	0.31601315
O	0.4274761	0.4699892	0.4430346
O	0.4268339	0.46806065	0.5673633
O	0.4262721	0.4709213	0.692634
O	0.42524345	0.47047165	0.8151854
O	0.42657925	0.4661867	0.94371455
O	0.4267068	0.56857115	0.0660287
O	0.4259423	0.56815935	0.19168625
O	0.4291334	0.5667138	0.3194653
O	0.42857015	0.56929935	0.4412376
O	0.42660335	0.5668295	0.56721545
O	0.42860945	0.5652618	0.6903293
O	0.42694935	0.56892315	0.81791115
O	0.42759595	0.57026715	0.9416129
O	0.4269363	0.670729	0.06828365
O	0.42738195	0.6702694	0.19293015
O	0.4265067	0.66828285	0.31573305
O	0.4246008	0.6730572	0.4422814
O	0.4277329	0.66803185	0.5673072
O	0.4271903	0.66842915	0.6926533
O	0.42567215	0.67181545	0.81616195
O	0.42752495	0.667994	0.9415876
O	0.42728975	0.7682876	0.0670234
O	0.42816095	0.76833485	0.1915419
O	0.4276994	0.7699216	0.31805675
O	0.42643045	0.76960765	0.4435215
O	0.4270541	0.7686801	0.56842575
O	0.42680085	0.7700229	0.6921977
O	0.4282383	0.76924605	0.8163106
O	0.42648705	0.7700046	0.94291415
O	0.42887655	0.8716644	0.06701195
O	0.42714275	0.86806745	0.1906355
O	0.4280897	0.8690165	0.3161507
O	0.4274905	0.8730462	0.4411498
O	0.4257157	0.8701169	0.56577535
O	0.42689335	0.87003955	0.6913334
O	0.42945195	0.87039965	0.8151394
O	0.42639745	0.8699279	0.9416262
O	0.4266855	0.9680149	0.0663948
O	0.42866425	0.9689027	0.19339795
O	0.42797775	0.970936	0.316334
O	0.4268759	0.9717341	0.44346955
O	0.42550805	0.97015445	0.56616205
O	0.42513535	0.9698011	0.69182195
O	0.4284312	0.96954195	0.8168383
O	0.42677875	0.96969225	0.9409861
O	0.526331	0.0681394	0.0674461
O	0.5278528	0.0679959	0.1947178
O	0.5299373	0.0676251	0.31674185
O	0.5234705	0.0681125	0.443152
O	0.5247513	0.0674089	0.56521595
O	0.52627035	0.0667072	0.690995
O	0.5261419	0.06958845	0.8183419
O	0.52826015	0.0664728	0.9414933
O	0.5264275	0.16770845	0.0688232
O	0.5292062	0.16399345	0.19532465
O	0.52787835	0.16799705	0.3172656
O	0.52624995	0.1666349	0.44148085
O	0.5278568	0.1678005	0.5639135
O	0.52722865	0.17154655	0.69261555
O	0.52692665	0.16756475	0.81597805
O	0.5268064	0.16783985	0.94362705
O	0.5423547	0.25223855	0.06472545
O	0.5288102	0.2663503	0.19161795
O	0.52634185	0.27040585	0.3165782
O	0.5265854	0.2692926	0.44054545
O	0.5280882	0.2699807	0.5680758
O	0.52730105	0.26937855	0.69194765
O	0.52743445	0.27051015	0.8162882
O	0.52910685	0.27147735	0.94195445
O	0.5268693	0.37111885	0.06551685
O	0.5257691	0.36920325	0.18979865
O	0.527085	0.3728621	0.3181162
O	0.52544955	0.36937545	0.4420856
O	0.52730735	0.36996935	0.5661253
O	0.52558655	0.3723076	0.69090515
O	0.52705165	0.3697709	0.8166978
O	0.5280543	0.37250895	0.9422955
O	0.52962155	0.464855	0.0678219
O	0.52685085	0.468969	0.19170925
O	0.5281722	0.4687732	0.31772805
O	0.52689125	0.4684211	0.4404382
O	0.5275967	0.46776615	0.567037
O	0.5266344	0.46704125	0.6926783
O	0.5262734	0.47100945	0.81636125
O	0.5266081	0.46927705	0.941931
O	0.5269649	0.5719264	0.06708635
O	0.52616705	0.565657	0.19073275
O	0.5275673	0.57240745	0.3153669
O	0.5265014	0.569298	0.4409611
O	0.52655555	0.5683572	0.5650395
O	0.52758705	0.5674283	0.69214945
O	0.5258041	0.5683074	0.81684205
O	0.5277495	0.5695363	0.94215755
O	0.527066	0.6684833	0.0659708
O	0.52768175	0.67090995	0.1924862
O	0.52722735	0.66922295	0.31718105
O	0.52817495	0.668788	0.441941
O	0.526228	0.668322	0.56699425
O	0.52790335	0.66586045	0.6916299
O	0.5282002	0.6688644	0.81773445
O	0.5297348	0.6692221	0.9412522
O	0.5256855	0.769297	0.06734095
O	0.5243849	0.76989765	0.19261205
O	0.52769515	0.7713281	0.313927
O	0.52427725	0.7708819	0.44073695
O	0.52594035	0.7729624	0.5676196
O	0.5252363	0.7720478	0.6905422
O	0.52620705	0.77334785	0.8182317
O	0.52425005	0.7712242	0.9433357
O	0.5284547	0.86782185	0.066694
O	0.5282012	0.86881185	0.1894324
O	0.5265054	0.871071	0.3168116
O	0.5279147	0.8718067	0.44296185
O	0.52778165	0.8670858	0.56804945
O	0.52844875	0.86995585	0.6935166
O	0.527805	0.86766955	0.81899855
O	0.52748725	0.86970175	0.94251
O	0.5279959	0.9687804	0.0669353
O	0.528664	0.9681698	0.19208195
O	0.52587415	0.9710244	0.3187739
O	0.5247927	0.9698378	0.44231555
O	0.52406575	0.9719013	0.5687845
O	0.52551215	0.9700147	0.69202455
O	0.5274623	0.96821365	0.81560365
O	0.52682875	0.9701162	0.9410338
O	0.6290369	0.0679158	0.0668482
O	0.62657555	0.0704405	0.1914389
O	0.6249209	0.06902145	0.31757435
O	0.62638095	0.06865185	0.44175815
O	0.62580385	0.06907545	0.5647138
O	0.62905785	0.07102975	0.6926668
O	0.626323	0.06907485	0.8179753
O	0.6281286	0.0709247	0.95848805
O	0.6278095	0.168885	0.0662196
O	0.6268787	0.1694605	0.1905086
O	0.6261239	0.16757055	0.31706945
O	0.62650855	0.1703879	0.4430465
O	0.6273099	0.16806725	0.5670192
O	0.6252828	0.1705834	0.6916633
O	0.6279591	0.17185905	0.81780275
O	0.62800435	0.17001785	0.9415085
O	0.62577355	0.2705693	0.06593455
O	0.62688165	0.269299	0.1910096
O	0.62736995	0.2698119	0.31820145
O	0.62755345	0.27203835	0.4414458
O	0.62982525	0.26822305	0.56878105
O	0.62737445	0.27180035	0.6926281
O	0.62657565	0.2712754	0.81710895
O	0.6265651	0.26780255	0.9427576
O	0.6259701	0.367563	0.0859103
O	0.62639365	0.3676389	0.1906072
O	0.6271682	0.3703741	0.3172851
O	0.62861815	0.37129485	0.4402321
O	0.62499365	0.373187	0.5670967
O	0.62783865	0.36843535	0.6921842
O	0.62662855	0.36987305	0.8163458
O	0.6284876	0.3687716	0.9398427
O	0.6281602	0.4694391	0.0666085
O	0.6261435	0.4728069	0.19127015
O	0.62844515	0.4686393	0.3193086
O	0.62637085	0.47273365	0.44290095
O	0.62745085	0.46986195	0.56635155
O	0.62637015	0.46944615	0.69394075
O	0.6264843	0.4687972	0.8201419
O	0.62644	0.469846	0.94151695
O	0.62777625	0.5695958	0.06780355
O	0.62824385	0.5680267	0.1915002
O	0.6290623	0.57012395	0.31729665
O	0.62651475	0.57076575	0.44221885
O	0.6285745	0.570616	0.56655435
O	0.6260418	0.5690203	0.6921303
O	0.6269203	0.5701137	0.81850735
O	0.6263801	0.56746495	0.94319505
O	0.62677845	0.67027505	0.0685914
O	0.62805225	0.66920795	0.1900974
O	0.62700615	0.66967715	0.316744
O	0.62532875	0.6699309	0.44057285
O	0.6302995	0.6678607	0.5839505
O	0.628441	0.66978315	0.6942804
O	0.6263444	0.66966175	0.81568265
O	0.62684265	0.66907565	0.9426733
O	0.6279128	0.76877785	0.06777775
O	0.62585375	0.7703445	0.19069045
O	0.6275898	0.76995445	0.31836355
O	0.6266679	0.77072535	0.44144655
O	0.6241931	0.7658968	0.566556
O	0.62521695	0.77460585	0.6912732
O	0.6273515	0.7712729	0.81816085
O	0.6260271	0.77132045	0.94344295
O	0.62627595	0.8682067	0.0661556
O	0.62760275	0.86974795	0.19294285
O	0.6279121	0.87053395	0.31382785
O	0.62678355	0.86911745	0.43938315
O	0.6256346	0.8698081	0.5653908
O	0.623672	0.8739016	0.69314095
O	0.62840985	0.87072055	0.8179728
O	0.6270859	0.87209025	0.9433307
O	0.62826985	0.9703621	0.06669755
O	0.62683955	0.9712449	0.1934038
O	0.6282299	0.96851625	0.31609705
O	0.62585655	0.9719168	0.4417061
O	0.6259056	0.9701858	0.566281
O	0.62841395	0.9677874	0.6920056
O	0.62587875	0.9722118	0.81868295
O	0.6264601	0.9685047	0.9426075
O	0.72708425	0.06855535	0.06772435
O	0.7265825	0.06889365	0.19127565
O	0.7274475	0.0700372	0.3178207
O	0.72595895	0.06793895	0.4422679
O	0.7271159	0.06831255	0.5659704
O	0.7284275	0.06633705	0.69092725
O	0.72855325	0.06995155	0.81852515
O	0.7278439	0.0699513	0.9412078
O	0.7263442	0.1694585	0.06717705
O	0.72782515	0.1709272	0.19239595
O	0.72804875	0.16986925	0.31597745
O	0.7282673	0.1687751	0.44232645
O	0.72772665	0.1675625	0.5657916
O	0.7294604	0.1706028	0.69167905
O	0.72803515	0.1692286	0.8174112
O	0.7286939	0.1700662	0.9427018
O	0.72419035	0.268185	0.06735965
O	0.7268689	0.2706568	0.1933351
O	0.7262218	0.27065935	0.31845555
O	0.7266501	0.2708278	0.4431849
O	0.72609955	0.2731008	0.5665411
O	0.72515225	0.2730763	0.6917268
O	0.729123	0.2697423	0.81714985
O	0.72764285	0.270556	0.94367165
O	0.72632635	0.3718499	0.0666004
O	0.72621745	0.3708512	0.1910011
O	0.72748625	0.37020815	0.32094585
O	0.7269483	0.3692274	0.4412887
O	0.7277981	0.36924725	0.56798255
O	0.72859935	0.37066035	0.6931463
O	0.72760835	0.3702007	0.8159283
O	0.7288667	0.37082025	0.94134065
O	0.7282899	0.4684169	0.06711445
O	0.72531565	0.47083155	0.1914391
O	0.7269871	0.4711873	0.31747125
O	0.7265893	0.47105525	0.44301745
O	0.72585065	0.4689583	0.56738735
O	0.7236923	0.47205385	0.6933721
O	0.72735275	0.46876425	0.81764405
O	0.72703435	0.470051	0.94258005
O	0.72895065	0.56858305	0.06605585
O	0.72787335	0.5713256	0.19207315
O	0.72727475	0.56937495	0.3187141
O	0.7278856	0.56795555	0.44224885
O	0.72863615	0.567337	0.5670658
O	0.72872335	0.5683317	0.691814
O	0.72704455	0.5686824	0.817931
O	0.72647765	0.56728775	0.94381615
O	0.7257698	0.6722723	0.06896155
O	0.72745685	0.67270995	0.19050735
O	0.72635905	0.66897375	0.31608945
O	0.72669735	0.6659548	0.4419616
O	0.7269652	0.66995065	0.56755715
O	0.72777105	0.66635765	0.6917143
O	0.73014205	0.6682962	0.81852865
O	0.73011625	0.6685878	0.9415794
O	0.7264986	0.769884	0.06864845
O	0.7258524	0.76963115	0.19208815
O	0.7264215	0.7693355	0.3178547
O	0.72876745	0.7692438	0.44230705
O	0.72793295	0.76804235	0.56430055
O	0.724561	0.7718327	0.6940235
O	0.72562385	0.76807295	0.8163285
O	0.7285434	0.7673011	0.941811
O	0.72611465	0.86879805	0.06771045
O	0.7284119	0.868921	0.19197995
O	0.72512765	0.86947435	0.3150809
O	0.72704555	0.87007895	0.4422891
O	0.72419875	0.87350295	0.56593755
O	0.7288335	0.8697912	0.69274835
O	0.72723185	0.8689428	0.8146222
O	0.72650425	0.8716059	0.9419391
O	0.72830275	0.9689188	0.06717265
O	0.72720865	0.96840425	0.1907753
O	0.7278987	0.9700901	0.31653075
O	0.7259392	0.96883085	0.44274965
O	0.72795565	0.96714675	0.5672195
O	0.7268796	0.96903605	0.6916015
O	0.7266712	0.96865245	0.8158969
O	0.7276892	0.96974225	0.94302325
O	0.82722215	0.06952985	0.06736725
O	0.82550565	0.0686901	0.18908645
O	0.8266079	0.067326	0.3161995
O	0.8282498	0.06961035	0.43888445
O	0.8267154	0.06859215	0.56638375
O	0.82812195	0.0668376	0.6909918
O	0.8287681	0.06717015	0.81526025
O	0.82694365	0.0683282	0.9424401
O	0.8278817	0.16821925	0.0673107
O	0.8267079	0.1683569	0.1927333
O	0.8264186	0.1714569	0.3156459
O	0.82773535	0.16907045	0.4404279
O	0.8254891	0.16773475	0.5660505
O	0.82728805	0.1699041	0.6915022
O	0.8276374	0.1709308	0.81736975
O	0.8256124	0.16906675	0.9412604
O	0.8280906	0.269987	0.06655555
O	0.8259591	0.27006915	0.19216255
O	0.82789275	0.2718416	0.3180568
O	0.82832545	0.2706873	0.44220785
O	0.82729785	0.2688767	0.56551785
O	0.8269971	0.26986475	0.69262615
O	0.8271696	0.26838915	0.8174162
O	0.8289981	0.26887655	0.94231985
O	0.82416455	0.3714355	0.06631355
O	0.8280496	0.37211725	0.19280655
O	0.8277525	0.3716014	0.3188672
O	0.82728025	0.37112445	0.442438
O	0.82679605	0.3701537	0.5672286
O	0.8276947	0.3696122	0.69129005
O	0.8279326	0.3684434	0.818349
O	0.8282383	0.3698128	0.94298915
O	0.82689095	0.4685098	0.06658295
O	0.82730415	0.4692993	0.1916655
O	0.83137845	0.47629495	0.33585525
O	0.8253159	0.47007085	0.4418049
O	0.82786435	0.4709526	0.568129
O	0.82843715	0.468614	0.69297035
O	0.8284358	0.46665595	0.8170376
O	0.82554115	0.46961225	0.94317375
O	0.82672675	0.56899455	0.06539715
O	0.82904625	0.56811505	0.190341
O	0.8260852	0.5693974	0.3193494
O	0.8274761	0.56791615	0.44013285
O	0.8264078	0.56822975	0.56789455
O	0.8296172	0.5688982	0.69344165
O	0.8285121	0.5680996	0.8179772
O	0.82542645	0.5700737	0.94426685
O	0.82537035	0.6677233	0.06729945
O	0.8288123	0.6700674	0.19126955
O	0.825587	0.66849735	0.32157945
O	0.8246161	0.6669935	0.4423195
O	0.82705975	0.66932975	0.56587565
O	0.8284342	0.66733525	0.6913654
O	0.8275424	0.6671337	0.81499455
O	0.8263015	0.6711199	0.9417394
O	0.82777915	0.7689223	0.06654275
O	0.8266723	0.7702718	0.19144985
O	0.82669625	0.77110415	0.3173108
O	0.82715695	0.7695021	0.4412805
O	0.8288656	0.7700633	0.566891
O	0.8275997	0.76769715	0.692324
O	0.82737395	0.7688796	0.817107
O	0.82789235	0.7706323	0.9417147
O	0.8282895	0.86740605	0.0678081
O	0.82545425	0.8700378	0.19058015
O	0.8257474	0.8694272	0.31705115
O	0.8283914	0.86076135	0.45593265
O	0.82962085	0.86917165	0.56731265
O	0.8256119	0.871079	0.69277905
O	0.827487	0.8701151	0.8170131
O	0.8269877	0.86907905	0.9433239
O	0.8274993	0.96859495	0.0670152
O	0.825383	0.97331035	0.1909558
O	0.82668495	0.9696145	0.3168593
O	0.8277226	0.96823225	0.44211905
O	0.8257332	0.97121435	0.56658275
O	0.82784435	0.96777865	0.6932717
O	0.8280206	0.96808945	0.8179445
O	0.8269437	0.9704228	0.94173225
O	0.9248989	0.06938235	0.0678517
O	0.9244748	0.07076095	0.19150385
O	0.92668445	0.07035935	0.3167755
O	0.9279051	0.06837915	0.44388355
O	0.92788055	0.06893775	0.5676358
O	0.92897175	0.0691303	0.6930778
O	0.92749385	0.06919595	0.81787215
O	0.9269287	0.06730175	0.9409085
O	0.9290181	0.1687408	0.0661852
O	0.92729105	0.16949455	0.19226955
O	0.9277063	0.16826995	0.3165936
O	0.9439852	0.15395265	0.43649845
O	0.9285601	0.16857345	0.56734175
O	0.92874145	0.16890575	0.6920248
O	0.92815695	0.1718967	0.81734185
O	0.9238099	0.1701239	0.94185825
O	0.9285721	0.2682408	0.06793865
O	0.9271386	0.26802165	0.1908213
O	0.9290703	0.26847675	0.31602065
O	0.9265403	0.27033435	0.4420824
O	0.92746585	0.2685995	0.5680831
O	0.9264796	0.2703036	0.69192235
O	0.9264871	0.27120965	0.81692975
O	0.9267358	0.27142505	0.94151885
O	0.92676175	0.36805735	0.06792375
O	0.9284224	0.36948015	0.19072565
O	0.9270034	0.36927665	0.31771395
O	0.928876	0.36970605	0.44237125
O	0.9271335	0.36847645	0.56802785
O	0.92640385	0.37109905	0.69300925
O	0.92546045	0.3727178	0.8163958
O	0.9260921	0.37181355	0.94380855
O	0.92576945	0.47274725	0.06793535
O	0.9283235	0.47174995	0.1914143
O	0.9256757	0.47421425	0.31677985
O	0.92827195	0.4704639	0.4426808
O	0.9262138	0.47161465	0.56780545
O	0.92556935	0.47105385	0.69170115
O	0.92762955	0.4681753	0.81773845
O	0.9272807	0.4696382	0.9422774
O	0.92656895	0.56926195	0.06751435
O	0.92662845	0.56926015	0.19086955
O	0.92858235	0.57018245	0.31804075
O	0.9285854	0.5699621	0.43915915
O	0.92765505	0.5698153	0.56780555
O	0.9290124	0.56770195	0.6917699
O	0.9274872	0.5711148	0.8194407
O	0.92718165	0.5705538	0.94111235
O	0.92585955	0.66969035	0.0660448
O	0.92660685	0.67067875	0.1915685
O	0.92663935	0.67266525	0.3171461
O	0.9279588	0.6679289	0.44266
O	0.9271513	0.6698224	0.566195
O	0.92820375	0.66905485	0.69257185
O	0.9268457	0.66943245	0.8197246
O	0.92876505	0.66737625	0.94274085
O	0.9284594	0.7694537	0.0650538
O	0.9269092	0.76920075	0.190612
O	0.92579655	0.76679975	0.3176185
O	0.92716935	0.76804265	0.4426145
O	0.92825575	0.7679199	0.569256
O	0.92648555	0.77179595	0.6928392
O	0.92834065	0.7690334	0.81783405
O	0.9282588	0.76863915	0.9437876
O	0.9271927	0.86892375	0.0683691
O	0.9271787	0.8721788	0.193615
O	0.92664385	0.8690739	0.31783045
O	0.92553705	0.87124525	0.44238725
O	0.92642145	0.8714579	0.56683285
O	0.92610305	0.8685326	0.6917219
O	0.92790325	0.87057755	0.8160224
O	0.92667705	0.86993925	0.94254675
O	0.92707145	0.96914615	0.06495375
O	0.9258819	0.9689581	0.19384595
O	0.92892605	0.9687416	0.31683805
O	0.9267292	0.97081515	0.44384985
O	0.92857225	0.9656948	0.56602595
O	0.9280875	0.9692257	0.6923802
O	0.9285758	0.96997335	0.81784825
O	0.9260597	0.9712757	0.9432633
O	0.07864085	0.07756115	0.0395286
O	0.07796615	0.0816293	0.1815584
O	0.077405	0.07632895	0.30668035
O	0.0815408	0.08053495	0.43301475
O	0.0752036	0.0782299	0.55781265
O	0.07866665	0.08010095	0.68379715
O	0.0772332	0.081697	0.80646775
O	0.0773884	0.0818219	0.9324043
O	0.0777298	0.17947395	0.0576798
O	0.07716045	0.1801537	0.1834134
O	0.0784378	0.18023265	0.3057731
O	0.0797095	0.18054445	0.4294738
O	0.0763606	0.1839875	0.55679415
O	0.0779882	0.182846	0.68265175
O	0.07724145	0.18175745	0.80683825
O	0.07613715	0.1819201	0.93259645
O	0.07813725	0.2811149	0.0595002
O	0.07455985	0.28069195	0.1848829
O	0.07624365	0.28136965	0.3054458
O	0.07567335	0.28183305	0.4327353
O	0.0785911	0.27892075	0.55929735
O	0.07625735	0.27943355	0.68258425
O	0.0792672	0.2821366	0.80703455
O	0.07668555	0.2810754	0.9329484
O	0.07733305	0.3811083	0.05729735
O	0.07819745	0.38201635	0.18139255
O	0.07858545	0.3803559	0.3099501
O	0.07640545	0.3789488	0.43267925
O	0.07859545	0.38011165	0.55704905
O	0.07827445	0.3810256	0.6830024
O	0.0796352	0.38108105	0.80784205
O	0.0792771	0.3805791	0.9331659
O	0.0769733	0.47934955	0.0568148
O	0.07956775	0.48135815	0.18185435
O	0.0747229	0.47968605	0.3065907
O	0.0769485	0.4798763	0.43505085
O	0.0790218	0.477698	0.5581804
O	0.07685395	0.47995875	0.68342335
O	0.07736975	0.4812089	0.80670895
O	0.07714955	0.4799755	0.9345323
O	0.0772723	0.5797511	0.05721145
O	0.0744415	0.58137545	0.18538785
O	0.07875955	0.58010845	0.30880195
O	0.07434675	0.57933505	0.4321032
O	0.0780958	0.58222995	0.5587325
O	0.0780778	0.58086665	0.6810854
O	0.07701705	0.58110575	0.80679865
O	0.07819465	0.5825888	0.93324285
O	0.0752336	0.6795293	0.0566167
O	0.07983695	0.68048735	0.18293035
O	0.0781185	0.67962255	0.3065966
O	0.0782102	0.68111855	0.4318004
O	0.07819975	0.6825379	0.5555343
O	0.07420775	0.67051085	0.68431415
O	0.07633	0.6806385	0.8064432
O	0.07706265	0.6811442	0.9327663
O	0.08014735	0.7792526	0.05759835
O	0.07740655	0.779822	0.1833903
O	0.07843475	0.78315945	0.3087322
O	0.07804325	0.7791321	0.431945
O	0.0777838	0.78013685	0.5555538
O	0.0766726	0.7785073	0.68459535
O	0.0794197	0.7834815	0.80340275
O	0.0778432	0.78247945	0.9328237
O	0.07825655	0.88179745	0.0571586
O	0.0784014	0.8817553	0.1824605
O	0.0759213	0.88129345	0.3066288
O	0.0777924	0.88149285	0.43489165
O	0.0760684	0.88109925	0.5578227
O	0.0774757	0.88042475	0.680554
O	0.07735255	0.8798579	0.80699465
O	0.07884925	0.8814641	0.93114585
O	0.0784282	0.9828326	0.057277
O	0.07697135	0.98004335	0.1826193
O	0.0784798	0.9816278	0.30664225
O	0.07807795	0.9826822	0.43131045
O	0.07772445	0.9803712	0.5569553
O	0.07748635	0.9806486	0.6823603
O	0.07761125	0.98134225	0.80688505
O	0.0790843	0.97936845	0.9316323
O	0.17636435	0.08020855	0.05796795
O	0.177507	0.0799216	0.18255425
O	0.1764612	0.08054705	0.30795895
O	0.1797295	0.0789582	0.43316235
O	0.1771089	0.07990985	0.55651495
O	0.17669575	0.0783149	0.68276075
O	0.1763583	0.0783816	0.81044115
O	0.1772339	0.0809842	0.9321963
O	0.17719295	0.18030855	0.0560344
O	0.17596205	0.18070605	0.18284315
O	0.17723675	0.1803095	0.30880295
O	0.1758573	0.18198275	0.43454085
O	0.1807343	0.18135035	0.556023
O	0.1759969	0.1806887	0.68284555
O	0.1781283	0.18034445	0.80685115
O	0.17699315	0.1804912	0.9324146
O	0.17656205	0.28372735	0.05718275
O	0.17995695	0.28330765	0.18233055
O	0.1778815	0.2800458	0.30942055
O	0.1781977	0.2820265	0.43082855
O	0.1744165	0.2798454	0.5558999
O	0.1806826	0.28399085	0.6831706
O	0.1782398	0.28193675	0.808051
O	0.1788613	0.28288435	0.93293935
O	0.17772565	0.38266145	0.05636435
O	0.17739835	0.37989	0.1849786
O	0.1775437	0.376166	0.30523115
O	0.17590815	0.37909285	0.43441825
O	0.1771481	0.37968175	0.5590372
O	0.17604845	0.37999115	0.6843815
O	0.17978385	0.3806668	0.80788205
O	0.17730125	0.37932095	0.93437075
O	0.1768728	0.480392	0.0579482
O	0.1778387	0.48216735	0.1821004
O	0.17645825	0.4808639	0.3074056
O	0.1793566	0.47866265	0.4314548
O	0.17769125	0.48047725	0.55730165
O	0.17666485	0.47925285	0.68307465
O	0.1766784	0.4837065	0.80647085
O	0.1761903	0.4809348	0.9327887
O	0.17630265	0.57908625	0.05661975
O	0.17679455	0.5801063	0.1810152
O	0.18024525	0.5810981	0.30891515
O	0.17723935	0.58089005	0.43338315
O	0.17875305	0.58170255	0.55657335
O	0.17638805	0.5797723	0.6818458
O	0.17571195	0.5785462	0.80815835
O	0.1781553	0.5801323	0.9331621
O	0.1792148	0.68119125	0.0572247
O	0.1757721	0.68108845	0.1824572
O	0.1770539	0.68060935	0.3079529
O	0.17597145	0.6855931	0.433783
O	0.1771851	0.6796484	0.5562593
O	0.17696765	0.67961225	0.6834764
O	0.1764358	0.6796194	0.80551745
O	0.17684225	0.6812596	0.9325455
O	0.1766596	0.78335175	0.05857915
O	0.1783786	0.77946705	0.1811147
O	0.1772731	0.7798971	0.3075154
O	0.18053255	0.7839173	0.43006395
O	0.17942075	0.78238365	0.556683
O	0.1764187	0.78322625	0.6824391
O	0.177328	0.78530845	0.79290325
O	0.1917581	0.79389435	0.9365172
O	0.1769034	0.88014225	0.05705055
O	0.17679425	0.881709	0.18205785
O	0.17889245	0.88242755	0.3073696
O	0.17913545	0.8797191	0.43298865
O	0.17774555	0.8818968	0.5557071
O	0.1782103	0.88237565	0.68177615
O	0.175344	0.88170985	0.8074801
O	0.1771207	0.8813857	0.93461215
O	0.1785259	0.9784393	0.05807675
O	0.17781725	0.9814407	0.1811742
O	0.1787075	0.97907925	0.31068655
O	0.17872215	0.9790586	0.4309963
O	0.17699755	0.9798833	0.55666665
O	0.17795995	0.9794989	0.6841274
O	0.1793727	0.9807777	0.8060956
O	0.17807625	0.9805678	0.93412045
O	0.27827905	0.08083245	0.05863285
O	0.2767054	0.0797613	0.18359805
O	0.2783268	0.08083195	0.30816865
O	0.2808288	0.080414	0.432356
O	0.27640225	0.08091	0.5573751
O	0.27745035	0.07714475	0.68189255
O	0.27664415	0.0777918	0.809296
O	0.27800305	0.08173155	0.9317878
O	0.27795495	0.18430555	0.0588507
O	0.27700015	0.1804349	0.18012265
O	0.2776628	0.18253785	0.30940495
O	0.27835205	0.179261	0.43282455
O	0.2772707	0.17983015	0.5577038
O	0.2775089	0.18051445	0.68191915
O	0.27768665	0.18055575	0.8049291
O	0.27903645	0.18238465	0.93393665
O	0.2802218	0.28325355	0.05644755
O	0.27930325	0.2839822	0.1831696
O	0.27500205	0.27907125	0.3080784
O	0.2754642	0.28266305	0.4344316
O	0.27862865	0.2790751	0.5571631
O	0.27674025	0.2818169	0.6835643
O	0.27740465	0.28078285	0.8082427
O	0.2765417	0.2824271	0.93175325
O	0.27634815	0.37855615	0.05602165
O	0.27773005	0.3817548	0.18074035
O	0.2781282	0.3816057	0.30804465
O	0.27756935	0.3793399	0.43113185
O	0.2766186	0.38270745	0.557498
O	0.27573615	0.38051715	0.68428335
O	0.27846185	0.3815722	0.80661405
O	0.27766535	0.3812319	0.93142195
O	0.27518575	0.48123255	0.0568944
O	0.27687405	0.47897155	0.18306585
O	0.27461165	0.479332	0.30648945
O	0.2777558	0.4820725	0.43539875
O	0.27764365	0.48071125	0.55746615
O	0.2759773	0.47927905	0.68150075
O	0.27684055	0.47971375	0.80542495
O	0.27669795	0.4802862	0.9333218
O	0.27892085	0.58192945	0.0560397
O	0.276066	0.5818486	0.183126
O	0.27839665	0.5800157	0.305159
O	0.2767804	0.5788918	0.43510935
O	0.27864935	0.58064445	0.5586427
O	0.27795575	0.5810696	0.6819385
O	0.27647565	0.58242745	0.80805585
O	0.2783716	0.583207	0.9317713
O	0.27905285	0.68116265	0.05908395
O	0.27904925	0.68246285	0.1810603
O	0.2776769	0.6808142	0.3070406
O	0.2777066	0.68069405	0.43350675
O	0.27882045	0.67994045	0.56141515
O	0.2753001	0.68011435	0.6807942
O	0.2777412	0.68234235	0.8079598
O	0.27793685	0.6806737	0.93140875
O	0.2916718	0.794543	0.0569216
O	0.2773233	0.782206	0.18317535
O	0.27966895	0.78303105	0.30671605
O	0.2752951	0.78006675	0.4333591
O	0.2780831	0.7819224	0.555934
O	0.27692625	0.78130475	0.67933425
O	0.2785319	0.7829017	0.8074715
O	0.2759473	0.7801975	0.93485
O	0.27920065	0.8815716	0.05636765
O	0.2792707	0.88136385	0.1829284
O	0.2790654	0.878695	0.3086761
O	0.27816835	0.8815562	0.43457875
O	0.2790093	0.880987	0.558111
O	0.2788197	0.8826323	0.68298285
O	0.2777182	0.8827862	0.8059274
O	0.2773285	0.88293195	0.93244675
O	0.276213	0.98010445	0.05869265
O	0.27992405	0.98071525	0.18157795
O	0.2787127	0.97973565	0.30663285
O	0.2776165	0.9814232	0.43140315
O	0.2789333	0.98326655	0.5597815
O	0.2779341	0.98037795	0.6796831
O	0.2754538	0.98032035	0.80816775
O	0.2793688	0.98351165	0.93188825
O	0.3748941	0.075245	0.0579041
O	0.3758934	0.07868895	0.182672
O	0.3775942	0.08050425	0.30931325
O	0.37490855	0.0766436	0.4319968
O	0.3777543	0.08168415	0.5577296
O	0.37768355	0.0809151	0.6835276
O	0.3761561	0.0781621	0.80614885
O	0.38038015	0.08183515	0.9317825
O	0.3775911	0.1816138	0.0593491
O	0.37698975	0.1789323	0.1843754
O	0.37834135	0.18069145	0.3088247
O	0.3755436	0.17787665	0.43120865
O	0.3796644	0.18182195	0.5574787
O	0.3780264	0.1817857	0.68067385
O	0.37568095	0.17925565	0.80449455
O	0.37740365	0.1802608	0.9295684
O	0.37818905	0.28127785	0.0575608
O	0.37874345	0.28180555	0.1840474
O	0.37895915	0.2801034	0.3079577
O	0.39034145	0.29319305	0.43902665
O	0.3782075	0.2815196	0.55816215
O	0.3791451	0.28334415	0.68353865
O	0.3770137	0.282406	0.80808065
O	0.3748457	0.28386475	0.93280485
O	0.3774562	0.38028515	0.0580163
O	0.37511605	0.3826108	0.18155265
O	0.3771217	0.3835521	0.30809685
O	0.37635585	0.38012735	0.4314079
O	0.3765417	0.3802057	0.55820055
O	0.37892805	0.38106665	0.6836908
O	0.37830415	0.38289495	0.80808125
O	0.3765768	0.3821435	0.9304607
O	0.37872855	0.4799278	0.05873005
O	0.37841585	0.48278995	0.18400235
O	0.3792877	0.4812322	0.3100163
O	0.3764475	0.48068045	0.431926
O	0.3774037	0.4796395	0.55696855
O	0.37839025	0.481917	0.6829209
O	0.3771256	0.479904	0.8090529
O	0.37722785	0.4811372	0.9322196
O	0.3802825	0.5810891	0.056227
O	0.37680925	0.57863775	0.18304265
O	0.37845345	0.57882865	0.30844535
O	0.3764863	0.57863015	0.4339976
O	0.3783676	0.5797914	0.55656505
O	0.37879515	0.5822227	0.68013555
O	0.3789478	0.5823361	0.80818455
O	0.37709785	0.57937365	0.93000185
O	0.37938645	0.679382	0.05493395
O	0.37929485	0.68077105	0.18109205
O	0.37770845	0.68087855	0.3052242
O	0.38072935	0.6819936	0.4312647
O	0.3749026	0.67979835	0.55676315
O	0.3765935	0.68047015	0.6822931
O	0.3768173	0.6799352	0.80701605
O	0.37732465	0.6818419	0.9315291
O	0.3752516	0.78215425	0.0573361
O	0.3765	0.779742	0.18287205
O	0.37887975	0.7826494	0.30619705
O	0.3786496	0.783924	0.43093915
O	0.37971555	0.7834214	0.5569445
O	0.3800122	0.78380235	0.68351785
O	0.3774923	0.78398305	0.80499645
O	0.37466685	0.7817182	0.9302152
O	0.3764251	0.881341	0.0574088
O	0.37902645	0.8838594	0.1842088
O	0.37728605	0.88157345	0.306452
O	0.3789026	0.8810202	0.43259745
O	0.37789795	0.87988465	0.55664775
O	0.3779482	0.8812385	0.6821656
O	0.3811757	0.87817215	0.80718295
O	0.37980575	0.88202275	0.9330719
O	0.37923995	0.98054215	0.0592453
O	0.37714915	0.97970205	0.1835809
O	0.3794252	0.97834725	0.3087897
O	0.37628115	0.9802729	0.4337464
O	0.3781612	0.9808475	0.55697205
O	0.3773927	0.9794956	0.68256195
O	0.37635915	0.98025405	0.80758345
O	0.37780285	0.9797258	0.9326516
O	0.478453	0.07892825	0.05641765
O	0.47794005	0.07998655	0.18392675
O	0.4753847	0.08035015	0.30630555
O	0.47637925	0.08034985	0.43200925
O	0.4727935	0.0792424	0.5394815
O	0.47729125	0.0800841	0.68108505
O	0.47589745	0.0779887	0.8087082
O	0.47812475	0.0787971	0.93370425
O	0.4775885	0.17985195	0.0559734
O	0.4772694	0.1810704	0.18273205
O	0.47757445	0.17924435	0.3083813
O	0.47762435	0.17928665	0.4323288
O	0.47749585	0.18056645	0.5561514
O	0.47690075	0.18254515	0.681038
O	0.47930105	0.18193215	0.80878645
O	0.47582155	0.18002155	0.9335249
O	0.47933275	0.28248895	0.05753715
O	0.47711295	0.2793035	0.18416125
O	0.47772495	0.2777073	0.309143
O	0.47905495	0.28045125	0.4307876
O	0.4770449	0.27870045	0.5560973
O	0.47603735	0.28046985	0.6815877
O	0.4808997	0.28188415	0.80691895
O	0.47753795	0.2806858	0.9332946
O	0.4771826	0.3809163	0.05674525
O	0.4768236	0.38296645	0.18085675
O	0.47816935	0.38053225	0.3051566
O	0.47747855	0.382878	0.43279095
O	0.4770071	0.3841531	0.55653285
O	0.4778303	0.37871845	0.6822261
O	0.47941835	0.38116985	0.8062356
O	0.4776414	0.38055325	0.93074835
O	0.47720695	0.48033015	0.05838265
O	0.4783774	0.48346285	0.184598
O	0.47761455	0.4806411	0.30593825
O	0.47589875	0.4809523	0.43198745
O	0.4761695	0.4823315	0.55795055
O	0.4766469	0.4812679	0.6837435
O	0.4766692	0.4791592	0.80804505
O	0.4792635	0.48158425	0.9324185
O	0.47786515	0.57856395	0.05989965
O	0.4791267	0.5812322	0.18135215
O	0.47700435	0.5804255	0.30489315
O	0.47653565	0.583265	0.43053905
O	0.47822425	0.5812516	0.55812205
O	0.475603	0.57754795	0.6816285
O	0.4768175	0.5798065	0.806425
O	0.4764871	0.5815368	0.92992075
O	0.47656815	0.68018135	0.056311
O	0.4812069	0.6829965	0.1807897
O	0.4792014	0.68124145	0.30739275
O	0.48038425	0.6820181	0.4311161
O	0.47719615	0.68071395	0.5561502
O	0.4766816	0.67962865	0.6827174
O	0.4760265	0.6764634	0.8108377
O	0.47805025	0.6814888	0.9337011
O	0.47755895	0.78127925	0.05836695
O	0.4781108	0.78695305	0.18284425
O	0.47668545	0.78078975	0.30803525
O	0.47826155	0.78304095	0.43342255
O	0.47623665	0.7839223	0.55589345
O	0.4779593	0.7826676	0.6827286
O	0.47824315	0.7803241	0.808867
O	0.478591	0.77832155	0.9310998
O	0.47585805	0.87998065	0.0574582
O	0.47867985	0.87899655	0.182855
O	0.4775254	0.88160575	0.3080893
O	0.4773998	0.87797505	0.43100795
O	0.47764115	0.88285955	0.5557983
O	0.47641325	0.8820966	0.6819918
O	0.4789587	0.8793308	0.80626485
O	0.4759693	0.8826636	0.93324905
O	0.47581905	0.98131225	0.0582828
O	0.4760953	0.97700015	0.18326795
O	0.4778671	0.97749145	0.30844615
O	0.47601615	0.9786976	0.43242545
O	0.4781876	0.98351565	0.55644425
O	0.4760134	0.98024015	0.6820772
O	0.4764067	0.9811285	0.80836875
O	0.4773071	0.98184125	0.93427995
O	0.5769257	0.0813675	0.05887715
O	0.5774029	0.08157455	0.1836781
O	0.57780105	0.07797205	0.30849185
O	0.5803352	0.08233935	0.43206905
O	0.57544405	0.08058905	0.55834755
O	0.5780375	0.0822219	0.6819728
O	0.57925135	0.08232555	0.8081013
O	0.57591255	0.08332955	0.9333244
O	0.5792474	0.1773842	0.05735755
O	0.5794799	0.1813702	0.1819726
O	0.57819375	0.1782955	0.30719345
O	0.57749525	0.18056515	0.43115655
O	0.5765006	0.18083195	0.5571849
O	0.5781653	0.17984715	0.68161845
O	0.57602905	0.18102255	0.80607305
O	0.57707885	0.1815571	0.93210015
O	0.57964195	0.2801673	0.0577987
O	0.57830535	0.2794307	0.1783001
O	0.5761293	0.2779632	0.30890725
O	0.57737525	0.28000525	0.4323126
O	0.57520205	0.2783515	0.55776535
O	0.57941985	0.28310425	0.68150945
O	0.57823885	0.28140115	0.81109345
O	0.5758897	0.2827637	0.9322907
O	0.5773248	0.3807333	0.056947
O	0.57677285	0.37872405	0.18371075
O	0.57630505	0.37928735	0.30792485
O	0.57689685	0.38206115	0.43142845
O	0.57489845	0.3795978	0.5578756
O	0.5769273	0.38213255	0.68143225
O	0.5761542	0.3815858	0.80880475
O	0.5787921	0.3830414	0.93371275
O	0.577888	0.4822028	0.0572656
O	0.5795043	0.47930045	0.18134855
O	0.57901345	0.479774	0.30818915
O	0.5763321	0.48213045	0.4299566
O	0.57828345	0.48399195	0.5569802
O	0.57675925	0.4794305	0.68414485
O	0.5737895	0.4770725	0.8086065
O	0.5785519	0.47876445	0.9320285
O	0.5795467	0.5808391	0.0586407
O	0.5749788	0.5784615	0.1811461
O	0.57860655	0.5804899	0.30566245
O	0.578713	0.58215135	0.4314407
O	0.5788334	0.5839726	0.55359145
O	0.57729495	0.57574345	0.68385665
O	0.57770525	0.58138415	0.80783455
O	0.5785143	0.5804774	0.93235865
O	0.5780822	0.6836806	0.05699985
O	0.577761	0.68213205	0.18277745
O	0.5769419	0.68130295	0.30636075
O	0.5780794	0.68189725	0.43117625
O	0.57810895	0.68238935	0.5597453
O	0.5746907	0.67830385	0.6839286
O	0.58028445	0.68047615	0.80737995
O	0.5777667	0.67994945	0.9318329
O	0.579073	0.78087215	0.05668525
O	0.5800563	0.78552135	0.1805624
O	0.5762338	0.77990775	0.309323
O	0.57877415	0.78032315	0.4304527
O	0.5766899	0.78320695	0.55905695
O	0.57767565	0.7808535	0.68313785
O	0.5786975	0.78129815	0.80953925
O	0.57716985	0.7830593	0.93348455
O	0.5768254	0.88253265	0.0580533
O	0.5781609	0.88268915	0.18475055
O	0.5763901	0.88333065	0.3098402
O	0.5758872	0.88081915	0.43085165
O	0.5780068	0.8804758	0.5559109
O	0.57815895	0.8812918	0.6826622
O	0.57925525	0.8801934	0.80590445
O	0.5801707	0.8881137	0.9363074
O	0.5780482	0.98295825	0.05785675
O	0.57818005	0.9809312	0.1828463
O	0.578335	0.98106405	0.3090277
O	0.57951805	0.9792015	0.4322931
O	0.5778996	0.9836987	0.5551881
O	0.5770719	0.97964745	0.68130975
O	0.5792406	0.98265315	0.8069391
O	0.57740865	0.98085135	0.93377215
O	0.6761378	0.0780616	0.05989435
O	0.67790175	0.07989385	0.18235915
O	0.67740545	0.07881205	0.30729835
O	0.67822395	0.08110935	0.4320798
O	0.6764184	0.07902575	0.556227
O	0.67734395	0.08177335	0.68084315
O	0.6770328	0.08014535	0.80578745
O	0.67886315	0.0827794	0.93221115
O	0.68133035	0.1837633	0.0586972
O	0.67612445	0.18106615	0.1838735
O	0.678091	0.1819212	0.30866295
O	0.6785824	0.18189195	0.4337559
O	0.67657715	0.17842565	0.55942645
O	0.6775174	0.1825174	0.6822123
O	0.6792112	0.182215	0.80702845
O	0.6797248	0.1806278	0.9319401
O	0.67698605	0.27919725	0.0576273
O	0.67900475	0.28091635	0.1826431
O	0.67546495	0.2814916	0.3053067
O	0.6786208	0.2791666	0.43214405
O	0.6775217	0.28057845	0.55694735
O	0.67727455	0.2819473	0.6831073
O	0.67822065	0.28160605	0.80988755
O	0.6773389	0.2831475	0.9307088
O	0.67832875	0.3814633	0.0572195
O	0.6764974	0.37957825	0.18381015
O	0.6768883	0.3834825	0.30706455
O	0.675505	0.37980145	0.43162495
O	0.67706015	0.38161895	0.5567888
O	0.678038	0.38107595	0.68445315
O	0.6765395	0.38019455	0.7898179
O	0.67721135	0.3830933	0.93121685
O	0.67769605	0.4786376	0.05810585
O	0.67749575	0.48258895	0.18360065
O	0.67939025	0.48590955	0.3078573
O	0.6787724	0.48223215	0.43308385
O	0.67561825	0.4778933	0.556234
O	0.6743807	0.4778161	0.6828154
O	0.67937015	0.4802627	0.8075653
O	0.6793026	0.4794085	0.93091875
O	0.6790824	0.58026775	0.0581471
O	0.6776739	0.5837606	0.1811927
O	0.6785732	0.58281755	0.30675215
O	0.67693325	0.5789419	0.4316838
O	0.6779377	0.5775601	0.5578512
O	0.67675195	0.5817053	0.67979555
O	0.6755759	0.58266725	0.8057536
O	0.6797199	0.5792358	0.9291493
O	0.6791098	0.68222515	0.0567917
O	0.67828595	0.680457	0.1817699
O	0.6771812	0.6798767	0.30646595
O	0.67833655	0.67697955	0.43233755
O	0.67676995	0.68299165	0.55588005
O	0.6797387	0.6816632	0.68337425
O	0.678031	0.67761555	0.8082188
O	0.67863765	0.68116105	0.9332947
O	0.6758028	0.78142845	0.05763695
O	0.6768631	0.780981	0.18189525
O	0.6778703	0.78222795	0.3070042
O	0.6762997	0.78252995	0.4295624
O	0.6768323	0.7826534	0.55753815
O	0.67577955	0.78016505	0.6823331
O	0.67885445	0.7796492	0.80822425
O	0.67533905	0.7795381	0.93187395
O	0.6791696	0.8821176	0.05751305
O	0.67546285	0.88160315	0.1816463
O	0.67677185	0.8800821	0.3085584
O	0.67672195	0.8820258	0.4310753
O	0.6786335	0.8820233	0.5556269
O	0.67777405	0.8804962	0.68282305
O	0.6771481	0.882055	0.80507895
O	0.6770555	0.88336715	0.93263675
O	0.67559315	0.97818735	0.0585289
O	0.6762178	0.98027565	0.1830583
O	0.675683	0.9817041	0.3067789
O	0.6773886	0.9797719	0.4324597
O	0.67767685	0.9809332	0.5571894
O	0.67723345	0.9795543	0.68279465
O	0.675922	0.9818214	0.80666525
O	0.67955205	0.97781315	0.93485125
O	0.77710245	0.0804236	0.0549543
O	0.77746685	0.082156	0.1830222
O	0.7761584	0.0817888	0.30770645
O	0.77667555	0.0771373	0.4328749
O	0.7770815	0.0800041	0.55863275
O	0.7796215	0.08081645	0.68153565
O	0.77900505	0.082938	0.8094527
O	0.77567205	0.0792561	0.9334695
O	0.77930645	0.18170965	0.0577043
O	0.77842605	0.1812608	0.18174975
O	0.7772812	0.17827175	0.30925305
O	0.77808625	0.1845352	0.4318867
O	0.7778523	0.18169755	0.55807785
O	0.77810645	0.18090225	0.68234025
O	0.7792355	0.18500785	0.8085504
O	0.7777799	0.1796958	0.93166465
O	0.7775332	0.2797772	0.05732585
O	0.7793785	0.28060765	0.18246825
O	0.7796668	0.2839181	0.3092179
O	0.7797828	0.28449205	0.43393995
O	0.776635	0.2811206	0.55765
O	0.77626115	0.2824563	0.6823107
O	0.7773554	0.28045625	0.8079336
O	0.7805027	0.281085	0.9321747
O	0.77562255	0.3819904	0.0573601
O	0.7777254	0.38210555	0.1825725
O	0.77843115	0.38254525	0.3084611
O	0.77813665	0.380451	0.43383035
O	0.77842755	0.38250305	0.5589661
O	0.7768715	0.3790801	0.6820226
O	0.79089085	0.3925026	0.81247785
O	0.77882435	0.381661	0.93336755
O	0.77802885	0.4797536	0.0577866
O	0.77705095	0.4812565	0.1827934
O	0.77885725	0.4798936	0.3067427
O	0.77893915	0.4800221	0.43181175
O	0.7781984	0.47968455	0.5587857
O	0.77702975	0.4804587	0.6835245
O	0.7778722	0.481566	0.80965555
O	0.77900465	0.48219035	0.9316088
O	0.77618535	0.5780826	0.05726385
O	0.7780844	0.5798256	0.18090735
O	0.7766601	0.5801888	0.30708745
O	0.77481045	0.5806651	0.4327297
O	0.77882175	0.58134775	0.55752505
O	0.7791288	0.5812374	0.68133165
O	0.7780258	0.58137675	0.8068437
O	0.7734173	0.57914905	0.93253735
O	0.77689695	0.6806461	0.0575485
O	0.77876855	0.68121205	0.18268025
O	0.7737142	0.67288785	0.3085265
O	0.77739065	0.6799884	0.43162675
O	0.77758255	0.68184855	0.5578394
O	0.7765743	0.6801492	0.68238125
O	0.775593	0.67835865	0.80827015
O	0.77879245	0.6802754	0.9318036
O	0.7772301	0.7804648	0.0544834
O	0.77648545	0.77998755	0.18214815
O	0.7801872	0.78096245	0.30650795
O	0.77736445	0.7808095	0.4324366
O	0.77793945	0.78135115	0.5574298
O	0.77865485	0.7824206	0.68391385
O	0.7774755	0.7810698	0.810309
O	0.7804446	0.7802367	0.93276235
O	0.77650735	0.88143105	0.057406
O	0.77422175	0.8821421	0.18169535
O	0.7751182	0.88206095	0.30655075
O	0.7774441	0.8825983	0.4330343
O	0.77862515	0.8826045	0.55830015
O	0.77790445	0.8774321	0.6814899
O	0.77490505	0.8816416	0.80729715
O	0.7769022	0.88146125	0.93164825
O	0.7762716	0.9809045	0.0608391
O	0.77574625	0.98055455	0.181521
O	0.7765303	0.98098745	0.3091282
O	0.77752365	0.98131485	0.43417855
O	0.7777583	0.9799012	0.55617145
O	0.7767318	0.97844635	0.682075
O	0.77710005	0.98203885	0.80662885
O	0.7778774	0.9808427	0.93438815
O	0.8765513	0.08030205	0.05739565
O	0.87755665	0.08067525	0.183565
O	0.87610275	0.0814249	0.30813055
O	0.87714705	0.08034015	0.4339046
O	0.875738	0.08028765	0.5588716
O	0.87833185	0.07986585	0.684766
O	0.8786813	0.0804801	0.8070786
O	0.87474195	0.07948405	0.93360925
O	0.8776771	0.1803488	0.05701445
O	0.8767744	0.1805198	0.180089
O	0.8769472	0.1767368	0.3081336
O	0.8772637	0.17880715	0.4345498
O	0.8774887	0.18285405	0.55712815
O	0.87727805	0.1804539	0.6820084
O	0.88061005	0.18644155	0.8068059
O	0.8773048	0.18078045	0.9320125
O	0.8767315	0.28034045	0.05545045
O	0.8764269	0.27865555	0.18192
O	0.87849495	0.2833856	0.3076145
O	0.8787193	0.28226075	0.4322419
O	0.87670285	0.28097065	0.5565818
O	0.87690505	0.27821155	0.6822817
O	0.87868975	0.2812428	0.80744345
O	0.8776243	0.2805787	0.93128555
O	0.878347	0.3817834	0.0576492
O	0.878514	0.3810057	0.1822362
O	0.87789305	0.38006875	0.3054674
O	0.87688795	0.38061475	0.4312628
O	0.8790506	0.3802729	0.5574884
O	0.8937437	0.39596305	0.6877692
O	0.87864515	0.3785562	0.80650105
O	0.8778262	0.3808908	0.93250155
O	0.8783332	0.4801738	0.0566092
O	0.87720195	0.4829168	0.18168585
O	0.87717385	0.4806774	0.3071039
O	0.8791106	0.4814046	0.43069355
O	0.87635505	0.48071595	0.55831335
O	0.87698995	0.48158425	0.6814724
O	0.87769395	0.4800821	0.80735505
O	0.87869765	0.4803557	0.9317323
O	0.8774736	0.5803251	0.0566486
O	0.8773455	0.58031175	0.1836859
O	0.87606175	0.5811431	0.3077779
O	0.87839385	0.5826207	0.43239995
O	0.8767111	0.579318	0.55801305
O	0.87512455	0.580689	0.68260545
O	0.8763132	0.57973555	0.809443
O	0.8774573	0.57878035	0.931529
O	0.87694985	0.6850253	0.0597117
O	0.8796375	0.6815116	0.18195805
O	0.87854295	0.68342885	0.30699135
O	0.8775915	0.67959975	0.43263305
O	0.87687615	0.6796945	0.55695915
O	0.87719205	0.68058815	0.6810001
O	0.8788516	0.6817432	0.8078997
O	0.8768333	0.6798317	0.93218765
O	0.8766171	0.77956775	0.0580816
O	0.87827285	0.7810411	0.18202185
O	0.87667455	0.7807107	0.30367575
O	0.87964045	0.78027225	0.4320836
O	0.8783104	0.78178595	0.55871965
O	0.87814565	0.780877	0.68218365
O	0.8923721	0.7955877	0.8116897
O	0.8785813	0.78156485	0.93184945
O	0.87465055	0.8777541	0.0581924
O	0.8761345	0.8827267	0.18290625
O	0.87406675	0.8797794	0.30803285
O	0.87650505	0.8793836	0.4319795
O	0.8755392	0.87960365	0.5564118
O	0.8791096	0.88370675	0.6831085
O	0.8773398	0.8801301	0.80877545
O	0.87705185	0.8825446	0.93195135
O	0.8776538	0.97994905	0.05775755
O	0.87835035	0.98253755	0.1840241
O	0.8781158	0.9819722	0.30792845
O	0.8786882	0.98300085	0.4324005
O	0.8767429	0.9780497	0.55684375
O	0.8779081	0.98031605	0.68044195
O	0.87710715	0.98212245	0.8075557
O	0.8772448	0.98223665	0.9318054
O	0.9784556	0.082973	0.05668355
O	0.9762067	0.08014515	0.18343125
O	0.97742165	0.08221155	0.3079686
O	0.97786315	0.0808483	0.4345369
O	0.97915555	0.08064315	0.55860615
O	0.978778	0.0797495	0.68219275
O	0.9783651	0.07828945	0.8072479
O	0.9776673	0.0792526	0.9328926
O	0.97857285	0.17927625	0.0551998
O	0.97817715	0.1832644	0.17314545
O	0.9773863	0.1821853	0.3067574
O	0.9777358	0.18133955	0.43177305
O	0.9786819	0.18115505	0.5585714
O	0.97645555	0.1818941	0.683727
O	0.9766419	0.1808831	0.8088085
O	0.97715545	0.18374675	0.93506585
O	0.97803935	0.2816037	0.05691315
O	0.9794636	0.28329505	0.1805789
O	0.98045475	0.28172765	0.30975205
O	0.9777287	0.2779052	0.43152185
O	0.9787535	0.2798877	0.55683665
O	0.9775966	0.2831178	0.68335345
O	0.9758611	0.282012	0.809073
O	0.97872855	0.2841462	0.9331284
O	0.97612085	0.3802565	0.05627055
O	0.9749819	0.3822315	0.1800556
O	0.9778788	0.3788261	0.3046957
O	0.9756928	0.37816235	0.43159035
O	0.97808705	0.3799359	0.5586813
O	0.9772885	0.38073115	0.68229325
O	0.9756812	0.3795856	0.80656635
O	0.978578	0.37894755	0.9342436
O	0.97606995	0.48006275	0.05936485
O	0.9773042	0.47968785	0.18374305
O	0.9774241	0.48012135	0.30770605
O	0.98082055	0.4819784	0.43104
O	0.9776897	0.4810296	0.5576791
O	0.980592	0.48389605	0.6848539
O	0.9790949	0.48219635	0.80885805
O	0.9785365	0.48158155	0.93234445
O	0.9771783	0.5787247	0.05736965
O	0.97688665	0.58060735	0.18093465
O	0.97802355	0.58151365	0.30860255
O	0.9751531	0.5770373	0.4326
O	0.97939345	0.58025615	0.5543722
O	0.9762851	0.5808146	0.6831035
O	0.97829045	0.5791663	0.8068364
O	0.9755019	0.5823128	0.93307875
O	0.97668255	0.67987665	0.0566794
O	0.97800935	0.6815779	0.18300535
O	0.97665655	0.6827595	0.3076876
O	0.97924425	0.68155565	0.43228395
O	0.9792338	0.67862285	0.55881125
O	0.97674805	0.677877	0.6828408
O	0.9782297	0.6804341	0.80761225
O	0.97624285	0.6798586	0.93334105
O	0.9775089	0.780795	0.05636695
O	0.97620855	0.77748075	0.1824541
O	0.97881215	0.78081235	0.30866665
O	0.97823475	0.7822837	0.4326835
O	0.9777342	0.7793069	0.5582359
O	0.9769445	0.78034445	0.68144685
O	0.97747745	0.77966805	0.80809505
O	0.975281	0.7809115	0.9303939
O	0.97644205	0.8828404	0.0571553
O	0.9777704	0.87934165	0.18229365
O	0.97502835	0.8792842	0.3063596
O	0.977407	0.8819256	0.4332324
O	0.9773324	0.87995265	0.5566244
O	0.9777474	0.8808139	0.68337595
O	0.97661565	0.87900845	0.808736
O	0.9778792	0.88049865	0.9319241
O	0.97753345	0.97893495	0.05653785
O	0.97812595	0.9798607	0.1818314
O	0.97849785	0.98035375	0.307224
O	0.9761258	0.98216485	0.43247625
O	0.9763509	0.98217125	0.5587444
O	0.9795708	0.9804818	0.68283525
O	0.97940075	0.98052435	0.8053646
O	0.9791524	0.98187255	0.93079645
O	0.0265436	0.067514	0.1222392
O	0.02622335	0.06733745	0.2454047
O	0.02658095	0.06995505	0.3685232
O	0.02586865	0.06956725	0.49538675
O	0.026963	0.0700797	0.62076375
O	0.0275718	0.06893425	0.74444365
O	0.02763765	0.07090135	0.87023645
O	0.02725375	0.071257	0.9954729
O	0.0266456	0.1711052	0.120852
O	0.02676755	0.17049345	0.24222455
O	0.0235501	0.1698749	0.3696424
O	0.0267699	0.17173785	0.49324625
O	0.02624815	0.1684008	0.61943285
O	0.02873535	0.17274225	0.7437832
O	0.028163	0.16784075	0.870904
O	0.02771075	0.17194145	0.99520015
O	0.02925785	0.26622245	0.1222413
O	0.0285672	0.27483285	0.24518975
O	0.0272616	0.26829015	0.37094005
O	0.0276763	0.27168015	0.49481415
O	0.02796385	0.26895395	0.62218525
O	0.0274651	0.2687129	0.74652295
O	0.027974	0.26992255	0.87140695
O	0.0258122	0.268442	0.9931361
O	0.0256616	0.3665964	0.12034325
O	0.027232	0.37005395	0.24377325
O	0.02705325	0.3685374	0.3696452
O	0.02625865	0.3695653	0.49498015
O	0.02743605	0.3679625	0.62082365
O	0.0259755	0.36880255	0.74676985
O	0.02638645	0.36633805	0.86940185
O	0.026374	0.36899315	0.9961494
O	0.0261228	0.4690431	0.12097225
O	0.02779325	0.4693022	0.24571475
O	0.02895015	0.4694936	0.37073355
O	0.02772595	0.4666856	0.49611465
O	0.02810715	0.4691346	0.6194764
O	0.02563655	0.46955625	0.7446416
O	0.02911035	0.4721215	0.8664276
O	0.02886635	0.4692114	0.995963
O	0.0275707	0.56906015	0.1214127
O	0.0264543	0.5680659	0.24434065
O	0.0284629	0.56869585	0.3702257
O	0.02814	0.56961135	0.49642515
O	0.0282417	0.5700491	0.61818995
O	0.02539565	0.5704834	0.74564855
O	0.02666905	0.5660891	0.8709899
O	0.0268576	0.5684711	0.9949907
O	0.02768245	0.66945715	0.11965785
O	0.0271609	0.66830865	0.2453034
O	0.02686645	0.666304	0.3706279
O	0.0270531	0.67088685	0.4939723
O	0.0260774	0.66960225	0.6201937
O	0.02704365	0.67114975	0.7470426
O	0.02514355	0.6704176	0.8698675
O	0.02682515	0.66848495	0.99521645
O	0.026429	0.76952255	0.11806955
O	0.02738255	0.76981865	0.2424906
O	0.02709225	0.7667926	0.36794985
O	0.02539195	0.76927165	0.4959356
O	0.02858375	0.76906575	0.6212498
O	0.0288817	0.7679388	0.74862005
O	0.0252882	0.77000355	0.87025875
O	0.0289468	0.76847805	0.99778335
O	0.02581555	0.87086245	0.1205832
O	0.027338	0.87024745	0.2455907
O	0.0274861	0.8704817	0.3699802
O	0.0286566	0.8705347	0.49600375
O	0.03020145	0.86792705	0.61887725
O	0.0267923	0.8694252	0.7455932
O	0.02633335	0.87112975	0.87030845
O	0.02745135	0.868884	0.9949222
O	0.0285622	0.9703868	0.1210014
O	0.02623085	0.9688096	0.2469637
O	0.0282857	0.97111075	0.36615795
O	0.0279532	0.96766645	0.4956572
O	0.02831635	0.9685032	0.61994275
O	0.0264221	0.9702508	0.74740935
O	0.02647585	0.9699213	0.871532
O	0.02868515	0.96871465	0.9953966
O	0.1282378	0.0693734	0.11777645
O	0.129294	0.07068945	0.2470897
O	0.12602285	0.0707858	0.37182695
O	0.1271293	0.06950735	0.49420505
O	0.12790575	0.0682105	0.61870965
O	0.1287532	0.06818635	0.7445536
O	0.1267672	0.0678482	0.87073895
O	0.1277804	0.0669055	0.9949123
O	0.1246204	0.1704936	0.1183225
O	0.12811665	0.16850915	0.24423595
O	0.12774055	0.17112965	0.3679867
O	0.12637745	0.167324	0.4950977
O	0.1279394	0.1693751	0.61773275
O	0.1289349	0.16641605	0.7457571
O	0.12848185	0.16964745	0.8713008
O	0.12459485	0.17056585	0.995189
O	0.1277505	0.2701028	0.1211247
O	0.12709515	0.2707171	0.24405395
O	0.1251199	0.2708957	0.3698861
O	0.1290437	0.26956485	0.49432455
O	0.1250914	0.2712855	0.6210159
O	0.12569155	0.271998	0.7449812
O	0.1278449	0.26987225	0.87029475
O	0.12656575	0.2695654	0.99606465
O	0.1262062	0.37002585	0.12061535
O	0.12766095	0.37066765	0.2456899
O	0.12777025	0.36937635	0.3689691
O	0.128523	0.36850525	0.49683775
O	0.12901655	0.3696076	0.61960285
O	0.1246859	0.36973215	0.74702585
O	0.12722205	0.3697022	0.8690549
O	0.1251434	0.37032415	0.9948277
O	0.1294474	0.46998205	0.1203553
O	0.1256508	0.4697015	0.24528645
O	0.12871355	0.47022715	0.37043915
O	0.12885485	0.4693111	0.492906
O	0.12796455	0.46951325	0.61949145
O	0.1284627	0.4684033	0.7461444
O	0.12765375	0.47035555	0.86872325
O	0.12646795	0.46805275	0.99453545
O	0.126329	0.56938745	0.11791725
O	0.12716665	0.57102155	0.2441553
O	0.1281912	0.56830325	0.37069415
O	0.1262581	0.56774545	0.49598695
O	0.1280022	0.56814875	0.62248415
O	0.12732495	0.5711017	0.74472135
O	0.127846	0.5676755	0.8679389
O	0.1260086	0.56862705	0.9946686
O	0.1285798	0.66803795	0.11817615
O	0.12542735	0.66929005	0.2458445
O	0.12794765	0.67065825	0.37066825
O	0.1265039	0.67130045	0.49677825
O	0.1274873	0.66847785	0.6213098
O	0.12864595	0.6690236	0.7437743
O	0.12591585	0.6685264	0.86861775
O	0.127465	0.6680755	0.99732465
O	0.1264577	0.76952755	0.11875005
O	0.12658665	0.76883685	0.245055
O	0.12612005	0.77124925	0.3701851
O	0.12593915	0.7714107	0.493949
O	0.1273283	0.7687399	0.62048525
O	0.12735855	0.769359	0.7461754
O	0.12756485	0.7677409	0.8711818
O	0.12826765	0.76969615	0.9939906
O	0.1270653	0.87143605	0.12179155
O	0.12780885	0.8689652	0.24438125
O	0.12778045	0.8731238	0.3699871
O	0.12891525	0.8704112	0.4930185
O	0.12753035	0.8690799	0.6206912
O	0.1293982	0.86892315	0.74566195
O	0.13020755	0.87136465	0.8716113
O	0.1258518	0.8714754	0.9940212
O	0.12821585	0.96886845	0.12067805
O	0.1292243	0.96892595	0.24484355
O	0.12953825	0.9698462	0.3709175
O	0.12948625	0.96962985	0.49620585
O	0.12783095	0.9687014	0.62098185
O	0.12652005	0.96779555	0.7457296
O	0.12631455	0.9685914	0.870175
O	0.12574845	0.970698	0.9945322
O	0.22845185	0.07091255	0.12171635
O	0.23029075	0.06858855	0.24765775
O	0.2302837	0.06895635	0.36860245
O	0.2288256	0.06878315	0.49471805
O	0.22764705	0.07123	0.6198843
O	0.22784875	0.06932235	0.74300225
O	0.22714895	0.06589895	0.8709571
O	0.2262015	0.0660964	0.99633655
O	0.2271967	0.1666055	0.11871065
O	0.2274626	0.1671981	0.24587525
O	0.22768475	0.16920545	0.36971525
O	0.2280622	0.16912995	0.4942753
O	0.2274552	0.16698745	0.62169415
O	0.22447485	0.17245785	0.74370975
O	0.22557625	0.16879355	0.87202905
O	0.2268495	0.1692256	0.9961593
O	0.2250376	0.2685656	0.1185905
O	0.2272783	0.2697047	0.2432074
O	0.22674215	0.26972755	0.37026815
O	0.2259396	0.27139015	0.49417845
O	0.2265552	0.2696418	0.61920485
O	0.22760825	0.27229335	0.745274
O	0.22654715	0.2697874	0.87072915
O	0.22636125	0.2694152	0.99658955
O	0.22640255	0.37291595	0.11790675
O	0.2279891	0.37033055	0.24542675
O	0.2264447	0.37017555	0.370912
O	0.2295729	0.36801045	0.49586405
O	0.2256884	0.36931975	0.62166385
O	0.22461935	0.36939135	0.74718725
O	0.22566075	0.37056	0.86911065
O	0.22688275	0.37036415	0.9970859
O	0.2373198	0.4530702	0.1227939
O	0.2268691	0.47060965	0.2423422
O	0.2276157	0.47037575	0.37050515
O	0.2299614	0.46849355	0.49577205
O	0.2267144	0.4707311	0.61924135
O	0.2292686	0.4694916	0.74326865
O	0.22808965	0.46786105	0.8693366
O	0.2263551	0.46938285	0.9948501
O	0.22630325	0.56940005	0.1198388
O	0.2268878	0.57005255	0.2473086
O	0.2276446	0.56908815	0.3702216
O	0.2252955	0.56902055	0.4951897
O	0.22672685	0.56724665	0.6191695
O	0.2267371	0.57144295	0.7431025
O	0.2280736	0.56866505	0.87115265
O	0.2262841	0.56925135	0.99492205
O	0.2283936	0.66965345	0.12289065
O	0.22670895	0.66919	0.24593165
O	0.22688875	0.6731634	0.3699291
O	0.2263862	0.669214	0.498462
O	0.22938795	0.66992825	0.6196389
O	0.22483385	0.6672891	0.74459355
O	0.2273482	0.66928335	0.8699461
O	0.22725535	0.67002645	0.99475375
O	0.2275596	0.77097965	0.11953955
O	0.22590185	0.76992415	0.24548955
O	0.2265465	0.76853495	0.3693626
O	0.22580515	0.77066825	0.4962124
O	0.22798095	0.77073915	0.6212245
O	0.22693395	0.7696647	0.74705675
O	0.22714575	0.76888055	0.8692171
O	0.2272026	0.76794345	0.99387615
O	0.22705825	0.86829555	0.11888735
O	0.2293511	0.8696888	0.24414275
O	0.2282005	0.87011345	0.36977835
O	0.22761705	0.8698849	0.49490855
O	0.22903895	0.8681402	0.6203779
O	0.22681645	0.86863375	0.74484235
O	0.22654645	0.869661	0.87017655
O	0.226819	0.87001955	0.9934044
O	0.2254685	0.9718665	0.11947435
O	0.22810565	0.96915765	0.24322795
O	0.2258938	0.970834	0.36941515
O	0.2270089	0.9725935	0.49467935
O	0.2283428	0.9693216	0.6200256
O	0.22737075	0.97100875	0.745394
O	0.2274606	0.9690835	0.8699852
O	0.2274996	0.97182175	0.9952803
O	0.32655935	0.06910085	0.1210206
O	0.32734465	0.06968475	0.2450158
O	0.3282917	0.066824	0.3702217
O	0.32709625	0.06940235	0.4936103
O	0.32823485	0.06673935	0.6194271
O	0.3258264	0.069561	0.74741605
O	0.32687955	0.0681102	0.86971335
O	0.3273916	0.0700923	0.9942854
O	0.3266363	0.1716792	0.11925295
O	0.3285491	0.1685736	0.2458674
O	0.32649535	0.1682444	0.37026875
O	0.32801805	0.16901005	0.4960494
O	0.32649915	0.166887	0.62191825
O	0.32832105	0.1665832	0.74422665
O	0.32570515	0.16910755	0.8714841
O	0.32701845	0.17018515	0.99354225
O	0.32701085	0.27012395	0.1193369
O	0.32731585	0.268706	0.246139
O	0.3273065	0.26855795	0.3704146
O	0.32718675	0.2719772	0.49310005
O	0.32768295	0.269227	0.62089715
O	0.32458175	0.26645695	0.7446436
O	0.3276799	0.27261165	0.86945885
O	0.32781295	0.27108805	0.99287615
O	0.3259147	0.37320805	0.11892675
O	0.32848595	0.3694519	0.24511235
O	0.32659215	0.366415	0.3712431
O	0.3287964	0.36848035	0.49480115
O	0.32506725	0.3687507	0.62191175
O	0.3268961	0.3674474	0.7453637
O	0.326925	0.369605	0.8708313
O	0.3259698	0.37068455	0.9954504
O	0.32535595	0.4707769	0.12237305
O	0.3278172	0.46673205	0.2449748
O	0.32930245	0.4671963	0.37112315
O	0.32947795	0.46936785	0.49458925
O	0.3279787	0.4697777	0.62072225
O	0.3279902	0.46956665	0.74624755
O	0.3260617	0.4700697	0.86937775
O	0.32789495	0.47304515	0.99357015
O	0.32752215	0.570316	0.11992605
O	0.3286567	0.5698532	0.2439508
O	0.3265649	0.56837715	0.3699302
O	0.3272353	0.56806785	0.4959758
O	0.32589345	0.566559	0.61915535
O	0.32928875	0.5683616	0.74491445
O	0.32672485	0.56777505	0.87208495
O	0.3289236	0.56929725	0.99600515
O	0.3265213	0.6720259	0.1200472
O	0.32621115	0.6704927	0.24683105
O	0.32726935	0.67053305	0.37043615
O	0.32682695	0.6684891	0.49344755
O	0.32840535	0.66762065	0.61801485
O	0.33209575	0.65694365	0.75303815
O	0.32644665	0.6703388	0.8702328
O	0.3282156	0.6688314	0.99531525
O	0.32721345	0.7723871	0.1216459
O	0.3264785	0.77177845	0.2458393
O	0.32948775	0.7734308	0.3709165
O	0.32763805	0.76813685	0.49414515
O	0.3273277	0.76977315	0.6197083
O	0.32478485	0.7711675	0.74508765
O	0.328164	0.7707203	0.870206
O	0.32630005	0.7718187	0.99431595
O	0.32439255	0.87588135	0.12021745
O	0.32923165	0.86788285	0.2443168
O	0.32777975	0.8694504	0.36901915
O	0.32853135	0.87186175	0.4944252
O	0.3299257	0.871978	0.61911995
O	0.3280835	0.86894605	0.74291245
O	0.32759955	0.87036695	0.8714166
O	0.32496365	0.8701864	0.99598955
O	0.32796215	0.96877385	0.11887285
O	0.326636	0.9693015	0.243694
O	0.32816845	0.9703708	0.3701979
O	0.32820825	0.968944	0.49442195
O	0.32695845	0.96994055	0.6205995
O	0.3263497	0.9681399	0.7440989
O	0.32655585	0.970505	0.869043
O	0.3276947	0.97016355	0.99512135
O	0.42537285	0.06808665	0.12016015
O	0.4286317	0.06941945	0.2428942
O	0.4273416	0.07012685	0.37115325
O	0.42743525	0.0703672	0.4967133
O	0.4270901	0.0677899	0.61904435
O	0.42878475	0.0684291	0.74314115
O	0.42840775	0.06536535	0.8688058
O	0.4275678	0.06760855	0.99499595
O	0.428506	0.16687685	0.1200056
O	0.43005635	0.16757065	0.2446183
O	0.42522065	0.16690455	0.37128105
O	0.42850825	0.16823	0.49454945
O	0.4285798	0.16967965	0.62083645
O	0.42770265	0.16960865	0.7442542
O	0.42813985	0.1586332	0.8810575
O	0.42579415	0.1692323	0.9946009
O	0.42746565	0.26937725	0.1212622
O	0.4311167	0.2660978	0.2441511
O	0.42849725	0.26760695	0.36853235
O	0.42931955	0.26958755	0.49603345
O	0.42695675	0.2693897	0.62087835
O	0.42781175	0.26597515	0.7461353
O	0.4290312	0.27045335	0.87259675
O	0.42858925	0.27539395	0.99552355
O	0.4286268	0.3726102	0.1176183
O	0.429564	0.3693724	0.2459348
O	0.42731515	0.36967885	0.3698531
O	0.42735395	0.36958485	0.4960065
O	0.42805165	0.3694713	0.62044475
O	0.4270176	0.3711629	0.7437279
O	0.42767425	0.37350035	0.8680011
O	0.4283287	0.3681427	0.9964741
O	0.42637655	0.47090145	0.1196684
O	0.425324	0.4676279	0.2461071
O	0.4297214	0.47001655	0.3706888
O	0.4291331	0.47031265	0.49310085
O	0.42698115	0.46719575	0.62069765
O	0.4292313	0.4717959	0.74299315
O	0.4262627	0.471676	0.86989915
O	0.4257904	0.4686904	0.99305315
O	0.4269304	0.5706815	0.1175638
O	0.42964775	0.56885005	0.24623
O	0.4262466	0.5699047	0.3710522
O	0.4270676	0.56949	0.4949064
O	0.42657265	0.57024265	0.62103845
O	0.43101605	0.55322395	0.75414575
O	0.42584555	0.5705739	0.86994825
O	0.42697965	0.57016435	0.99420505
O	0.4280161	0.66874255	0.1188021
O	0.4276629	0.66742775	0.2457837
O	0.42632215	0.6699188	0.370602
O	0.4267346	0.66921355	0.4933718
O	0.42749185	0.66651545	0.6208231
O	0.4259275	0.6690729	0.747119
O	0.4268983	0.669282	0.8704747
O	0.42722015	0.66925815	0.99665395
O	0.42469785	0.7699484	0.12118905
O	0.42810995	0.77091035	0.2466254
O	0.4262737	0.77010095	0.3682041
O	0.4273851	0.7724391	0.49469435
O	0.4289569	0.76924765	0.61971545
O	0.42818215	0.76948	0.74694015
O	0.42829515	0.7709976	0.87074415
O	0.4275058	0.7673447	0.9939192
O	0.42647725	0.8704561	0.1189074
O	0.42593235	0.87111345	0.24562535
O	0.42726055	0.86909265	0.37024235
O	0.42617455	0.87150535	0.49440195
O	0.42744945	0.86773515	0.62063235
O	0.42857535	0.8710778	0.74496895
O	0.4271753	0.8738605	0.8708094
O	0.42653735	0.8710069	0.996897
O	0.4296981	0.96784215	0.12090695
O	0.4266599	0.97099585	0.24584155
O	0.4265239	0.9696414	0.3701202
O	0.4269311	0.9669347	0.4942722
O	0.4251017	0.97097505	0.61980035
O	0.42599305	0.9719693	0.74464545
O	0.42638115	0.9718181	0.86838115
O	0.42752265	0.96782825	0.9939453
O	0.5279083	0.0711541	0.11951145
O	0.5280043	0.06785575	0.24771455
O	0.5264144	0.07224215	0.36991455
O	0.52747505	0.0644645	0.4960529
O	0.5275481	0.0693013	0.62061575
O	0.52891465	0.06762765	0.74526505
O	0.52790795	0.0721385	0.87203775
O	0.53220415	0.05459155	0.00469895
O	0.52820825	0.16851965	0.12022905
O	0.5283347	0.1669821	0.2456588
O	0.52636815	0.16757095	0.3708735
O	0.52739555	0.16830755	0.49546785
O	0.52780755	0.17020775	0.61973385
O	0.52507305	0.1668268	0.74389605
O	0.52740785	0.16923675	0.8713789
O	0.524668	0.1682545	0.99706915
O	0.53016415	0.27118025	0.12013975
O	0.52747295	0.27001835	0.24574115
O	0.52825745	0.26825855	0.36934795
O	0.52736395	0.2725455	0.4960456
O	0.52588835	0.2701311	0.61773775
O	0.5269714	0.2724251	0.74291165
O	0.52822575	0.2702446	0.8704885
O	0.52982365	0.2701159	0.99424005
O	0.52404235	0.37123685	0.1189383
O	0.52921845	0.3694062	0.24429675
O	0.5284228	0.37170415	0.36959465
O	0.52796365	0.37103305	0.4946957
O	0.52557035	0.37007485	0.6209999
O	0.52522925	0.3686128	0.7467828
O	0.52846285	0.3702018	0.8716322
O	0.52726755	0.3683168	0.99383915
O	0.52800265	0.46983675	0.1192507
O	0.52727405	0.4673701	0.24508785
O	0.52767365	0.47061025	0.37024495
O	0.52742025	0.47026075	0.49340485
O	0.52912905	0.46951925	0.6193626
O	0.52910265	0.47326955	0.7468882
O	0.5295776	0.4691911	0.8698514
O	0.52680825	0.4693207	0.995511
O	0.5270725	0.56948125	0.1209126
O	0.52867015	0.5705941	0.245359
O	0.52652785	0.5671244	0.3716082
O	0.52899195	0.56755905	0.4957325
O	0.52781895	0.5668707	0.6212696
O	0.5274547	0.5707513	0.74327965
O	0.52850055	0.56957035	0.871325
O	0.5283967	0.5710663	0.9955503
O	0.5268066	0.6716595	0.1184947
O	0.52801185	0.6661822	0.2454041
O	0.5268234	0.66877675	0.37246765
O	0.5252282	0.67076295	0.4952124
O	0.52596045	0.66720145	0.62081575
O	0.5274125	0.6674487	0.74652175
O	0.52669115	0.66463215	0.87096645
O	0.5294318	0.66999575	0.99546305
O	0.5265808	0.76926585	0.11923895
O	0.52611415	0.77048855	0.2448933
O	0.52869245	0.769966	0.3695904
O	0.5286902	0.7705333	0.49445645
O	0.52655205	0.7698202	0.62094195
O	0.5275888	0.76691875	0.74410935
O	0.52856245	0.76980925	0.8699945
O	0.52801155	0.7694669	0.9946848
O	0.52734385	0.8684277	0.121559
O	0.5268996	0.869605	0.2457263
O	0.5251144	0.87114285	0.36938005
O	0.5281099	0.87047675	0.4928115
O	0.52790565	0.8702184	0.62068845
O	0.52865035	0.86788925	0.743732
O	0.52853735	0.86950175	0.87088255
O	0.53040515	0.8679816	0.996312
O	0.5286551	0.9666316	0.1211917
O	0.52791495	0.9690159	0.24464365
O	0.5269694	0.9672466	0.36913905
O	0.5270685	0.9701857	0.4943406
O	0.5277469	0.9670678	0.6184411
O	0.527272	0.9698979	0.7445574
O	0.52850595	0.9678872	0.8698811
O	0.5276768	0.97057365	0.99336575
O	0.62725235	0.0687333	0.12030605
O	0.6274211	0.0668104	0.24572245
O	0.6269708	0.06749815	0.3698636
O	0.6258995	0.0674135	0.4971147
O	0.6252856	0.071155	0.61880515
O	0.6287964	0.07011805	0.74737685
O	0.62707835	0.0682551	0.8712381
O	0.6269267	0.06835515	0.99579785
O	0.62618025	0.16926615	0.11909055
O	0.62907825	0.1681108	0.24725175
O	0.6256756	0.16990205	0.37102235
O	0.62984055	0.1687632	0.49571385
O	0.6270512	0.17266215	0.61948955
O	0.6263998	0.17025965	0.74615965
O	0.6284001	0.1687122	0.8699888
O	0.6262066	0.1698468	0.99281825
O	0.6277804	0.26814235	0.1198829
O	0.62908435	0.2680885	0.2455161
O	0.62682325	0.26817585	0.36982005
O	0.62915595	0.2702321	0.4943107
O	0.6277211	0.2703716	0.61974205
O	0.62824295	0.26971925	0.7442663
O	0.62838545	0.2694264	0.86881165
O	0.628123	0.2705157	0.9961058
O	0.62931425	0.36709675	0.1216793
O	0.6273607	0.36967625	0.2431827
O	0.62728855	0.36963375	0.37029795
O	0.62647795	0.3687581	0.49623715
O	0.6294473	0.3710179	0.62139725
O	0.6256661	0.37200355	0.7436636
O	0.6278675	0.37042265	0.8695467
O	0.6270315	0.3729395	0.9928543
O	0.6294468	0.47123085	0.1174828
O	0.6256953	0.47308905	0.244785
O	0.6255209	0.4710295	0.37039485
O	0.62938785	0.46748695	0.4947221
O	0.6284391	0.46859085	0.6208358
O	0.6281091	0.4701297	0.74357895
O	0.6306441	0.4690948	0.86998305
O	0.6276355	0.4692534	0.9959012
O	0.62653745	0.56823525	0.11939565
O	0.62858515	0.56814185	0.24565145
O	0.6260219	0.5670707	0.3698476
O	0.62681435	0.5669648	0.49674275
O	0.6280325	0.565071	0.62085145
O	0.6286379	0.5698422	0.7462325
O	0.6285272	0.5704331	0.87106565
O	0.6266831	0.57004565	0.99595705
O	0.6285926	0.66891955	0.121638
O	0.625092	0.6693233	0.2426323
O	0.62627065	0.6702475	0.36929635
O	0.6253124	0.6671043	0.4948158
O	0.6279817	0.6679005	0.6225801
O	0.6268848	0.66961985	0.74363825
O	0.62742045	0.66998745	0.86856225
O	0.62745775	0.6689922	0.99683735
O	0.6356152	0.77363905	0.10564425
O	0.6269846	0.77101495	0.24429315
O	0.62603635	0.7680556	0.3711907
O	0.62661065	0.7696645	0.49413415
O	0.62729595	0.76771405	0.6206419
O	0.6274936	0.76330985	0.75052
O	0.63597195	0.75359875	0.87398285
O	0.62829265	0.7685143	0.99411735
O	0.62709435	0.8691833	0.12048665
O	0.6283191	0.87081235	0.24449665
O	0.6283799	0.8677185	0.368547
O	0.62589215	0.8697346	0.4937538
O	0.62720995	0.8696405	0.62002265
O	0.62878465	0.8684129	0.74510105
O	0.6256123	0.8691951	0.86947465
O	0.6261598	0.87179165	0.9940742
O	0.627859	0.96785895	0.11973745
O	0.6269083	0.96798905	0.24595005
O	0.62825865	0.96450895	0.36802865
O	0.6257106	0.97157715	0.4963266
O	0.62749765	0.97126885	0.61961445
O	0.62525905	0.97253035	0.746223
O	0.6288942	0.970795	0.8704814
O	0.62684485	0.9686635	0.9958152
O	0.72877865	0.0691068	0.12125675
O	0.72565045	0.0668533	0.2452936
O	0.727146	0.06789525	0.36999535
O	0.72728975	0.0682543	0.4948055
O	0.7265904	0.0694595	0.620312
O	0.72799495	0.0710081	0.74230365
O	0.7271037	0.0690362	0.87204
O	0.7266611	0.0701257	0.99415885
O	0.72717465	0.1681169	0.11927125
O	0.7279897	0.1699974	0.2441202
O	0.72874435	0.1691368	0.36926115
O	0.7294288	0.170147	0.4936456
O	0.72602775	0.1687647	0.61876245
O	0.72846365	0.1704495	0.7451571
O	0.72653745	0.1692854	0.86933785
O	0.7254736	0.1697396	0.99302865
O	0.72817475	0.26815445	0.1198301
O	0.7269418	0.27057745	0.2454093
O	0.727486	0.26851495	0.36958195
O	0.72660365	0.2696689	0.4937125
O	0.726357	0.27170485	0.6190054
O	0.72747905	0.27164945	0.74480465
O	0.72855365	0.26945405	0.86947115
O	0.72677465	0.267692	0.9960951
O	0.72827725	0.36803235	0.11906175
O	0.72674195	0.36981295	0.24470165
O	0.728021	0.36987305	0.3688315
O	0.7278023	0.36901245	0.49535165
O	0.72908325	0.3695908	0.6197987
O	0.72452165	0.37141255	0.74423015
O	0.72783565	0.3671684	0.86971625
O	0.7278172	0.36916435	0.99289835
O	0.72537765	0.46856245	0.12156425
O	0.728023	0.4707098	0.24390295
O	0.72760385	0.4689835	0.3684489
O	0.72555355	0.47281805	0.4954313
O	0.7263501	0.4710732	0.6202032
O	0.72830445	0.4694995	0.7449644
O	0.72537245	0.469341	0.87112805
O	0.728175	0.47024925	0.99236875
O	0.72795915	0.5689662	0.1186359
O	0.72668445	0.57053735	0.2448027
O	0.7281688	0.57001525	0.3671942
O	0.72697505	0.56987635	0.4953251
O	0.7277542	0.56808015	0.6202047
O	0.726383	0.56827865	0.7436554
O	0.72612015	0.5692339	0.8705892
O	0.72780695	0.57027405	0.99492875
O	0.7261432	0.66955295	0.1203895
O	0.7294567	0.66704705	0.2466774
O	0.7278003	0.6679512	0.37007235
O	0.72610795	0.66919275	0.4951944
O	0.72535555	0.66627485	0.62145415
O	0.72872225	0.6699259	0.74525935
O	0.72722485	0.66950315	0.8698135
O	0.7283171	0.6706766	0.994476
O	0.72936835	0.76932815	0.12073555
O	0.72729615	0.76937985	0.245454
O	0.72655095	0.7705634	0.36823555
O	0.7287303	0.7684851	0.4949475
O	0.7270934	0.7693202	0.61858715
O	0.72813245	0.7691614	0.7458184
O	0.72766415	0.7692412	0.86890655
O	0.72750565	0.7703032	0.9936379
O	0.7267511	0.87126805	0.1192328
O	0.72789255	0.87063125	0.2458889
O	0.7268403	0.87068385	0.37104945
O	0.72835365	0.8692281	0.496015
O	0.72746045	0.86981765	0.61912975
O	0.7255867	0.8692535	0.74612455
O	0.72599205	0.8692391	0.8691861
O	0.72691255	0.8680738	0.99557715
O	0.7263531	0.97114765	0.1226093
O	0.7274854	0.9713004	0.24412745
O	0.72871995	0.9705402	0.37062025
O	0.72599955	0.97100065	0.4971862
O	0.7282573	0.9681989	0.6201503
O	0.7240395	0.9711898	0.7443907
O	0.726058	0.97073925	0.86988225
O	0.7295628	0.9692606	0.9962385
O	0.8276802	0.0698968	0.1210671
O	0.82762405	0.07058425	0.24214695
O	0.8275053	0.06815705	0.3703929
O	0.8275376	0.06813065	0.49646435
O	0.82641955	0.07038375	0.6200881
O	0.82773155	0.0683931	0.7473099
O	0.8267881	0.06823035	0.8680654
O	0.8271458	0.0709553	0.99468855
O	0.82724015	0.16832865	0.1202967
O	0.8274694	0.1671515	0.2443357
O	0.8287347	0.1698676	0.36806605
O	0.8276969	0.16932915	0.4962074
O	0.8262965	0.17123795	0.6200703
O	0.82837235	0.17018245	0.74542635
O	0.82747525	0.1694332	0.8716314
O	0.8295664	0.16707215	0.99580795
O	0.8256252	0.26809385	0.120554
O	0.82584295	0.26916045	0.24489545
O	0.82541155	0.2690792	0.3692497
O	0.82834405	0.2686336	0.495585
O	0.82724805	0.27058435	0.61818545
O	0.829588	0.2697776	0.7460185
O	0.826579	0.2708217	0.8698867
O	0.82735465	0.27053965	0.9949398
O	0.8296234	0.36919825	0.11854765
O	0.8269401	0.3694057	0.24496705
O	0.8271821	0.36970355	0.36888715
O	0.8273578	0.37206155	0.49480685
O	0.8277826	0.36895655	0.61923905
O	0.8277058	0.37022125	0.74515085
O	0.82820025	0.3701107	0.86932715
O	0.82809875	0.3711664	0.993384
O	0.8277848	0.46883295	0.1208181
O	0.82892385	0.4681482	0.24434905
O	0.82891325	0.46886495	0.37120985
O	0.82645705	0.4705743	0.49631105
O	0.8270804	0.468607	0.6182839
O	0.82786515	0.4695795	0.74406635
O	0.8285895	0.46981525	0.86997135
O	0.82668405	0.4715398	0.99376165
O	0.8275702	0.5687275	0.12213785
O	0.82592525	0.57003805	0.24432055
O	0.82845265	0.5704775	0.3678076
O	0.82814175	0.5669809	0.49523275
O	0.8264344	0.5685348	0.6199527
O	0.82615595	0.56871285	0.7447976
O	0.82826695	0.56965825	0.8687598
O	0.8269486	0.5704167	0.99519245
O	0.8262532	0.6696483	0.11797035
O	0.82821465	0.6667697	0.24338765
O	0.8268519	0.6679981	0.36949925
O	0.82723415	0.6687171	0.4974083
O	0.82708415	0.6671305	0.61934745
O	0.8302602	0.6668541	0.74610235
O	0.8297535	0.6694432	0.8720237
O	0.8285511	0.6680399	0.9978498
O	0.82634525	0.7694214	0.1205975
O	0.8287279	0.7682185	0.246588
O	0.8266953	0.769622	0.3708322
O	0.82497285	0.77074475	0.4938854
O	0.830209	0.76773495	0.6199986
O	0.82834745	0.7687586	0.74774755
O	0.8279179	0.76909625	0.870964
O	0.82597475	0.7707195	0.9952402
O	0.8290982	0.8679805	0.1212722
O	0.8275875	0.8703922	0.2443875
O	0.8254602	0.86890705	0.37108365
O	0.8275276	0.86801235	0.495699
O	0.8334609	0.8557794	0.63059265
O	0.82818365	0.8682551	0.7482565
O	0.8286136	0.86818165	0.87062315
O	0.8265305	0.86854125	0.9969289
O	0.826904	0.96953145	0.12101205
O	0.827375	0.9704658	0.2451319
O	0.8277379	0.9661536	0.3700424
O	0.82750075	0.9696364	0.495242
O	0.82510235	0.97089175	0.6206155
O	0.826495	0.96965945	0.74528185
O	0.8283023	0.97222215	0.86795365
O	0.82646825	0.96986785	0.99319025
O	0.92791935	0.06953305	0.1194558
O	0.9301092	0.06851145	0.24414105
O	0.92756175	0.06753435	0.3696703
O	0.92989145	0.0717083	0.49555285
O	0.92816345	0.0702978	0.6197915
O	0.9277449	0.06928025	0.74592515
O	0.92528335	0.0718505	0.87019285
O	0.92726675	0.07012945	0.99438465
O	0.927303	0.1706356	0.11844035
O	0.92916815	0.168356	0.2448162
O	0.92551375	0.16840455	0.37109055
O	0.92710805	0.170305	0.49555065
O	0.92875995	0.16901305	0.6195032
O	0.92707845	0.1705364	0.7466162
O	0.92688025	0.1692214	0.8707285
O	0.9260231	0.1684409	0.99384285
O	0.92662485	0.26854995	0.1204096
O	0.92816025	0.26977895	0.24581515
O	0.9253284	0.2684817	0.369607
O	0.92711395	0.2707051	0.49531135
O	0.92702425	0.26573605	0.62093815
O	0.9267751	0.2692919	0.74516755
O	0.9276496	0.26933735	0.86890285
O	0.92776965	0.26840375	0.99579205
O	0.92952115	0.3686475	0.1191294
O	0.92930895	0.3711992	0.24577375
O	0.9274942	0.36956475	0.3692588
O	0.9278217	0.3693759	0.4947239
O	0.92723765	0.36926225	0.62061435
O	0.9269263	0.37136945	0.7425146
O	0.92771005	0.36875115	0.86881225
O	0.92942215	0.3702059	0.99345085
O	0.94481335	0.45721505	0.12342425
O	0.92854725	0.46673125	0.2448912
O	0.92479735	0.4694568	0.37028695
O	0.9256045	0.4693054	0.4943902
O	0.92818215	0.46894755	0.6197361
O	0.92669485	0.4704626	0.74430775
O	0.9277287	0.4690002	0.86945595
O	0.9297718	0.4703976	0.9957634
O	0.92662645	0.5690241	0.12044855
O	0.9271279	0.5665074	0.24506955
O	0.92888185	0.57007435	0.36861685
O	0.92750715	0.57029225	0.4949056
O	0.92820765	0.568624	0.61892555
O	0.92869215	0.57004375	0.7438547
O	0.9281549	0.56924825	0.8698801
O	0.928315	0.5708064	0.994439
O	0.9272486	0.67096545	0.12127375
O	0.92548555	0.66698625	0.2455943
O	0.9269079	0.66683665	0.3686646
O	0.92571375	0.6703507	0.4952818
O	0.9280271	0.66874705	0.6208658
O	0.92824015	0.6663143	0.74359855
O	0.92878215	0.6698512	0.87113195
O	0.92669615	0.66634725	0.99735525
O	0.9269816	0.7695994	0.11973895
O	0.9270316	0.77039695	0.24308995
O	0.9275895	0.7703009	0.36918615
O	0.92860095	0.7675313	0.49447525
O	0.92832855	0.76875625	0.6193418
O	0.92833355	0.7678647	0.74498685
O	0.92945345	0.77038075	0.8707928
O	0.92765785	0.7696328	0.9959246
O	0.92854705	0.8695589	0.12088515
O	0.92553055	0.87379015	0.24464415
O	0.9280723	0.86986265	0.3698401
O	0.9254161	0.87073515	0.4937055
O	0.92706665	0.86957605	0.6199283
O	0.92626475	0.87159755	0.74633855
O	0.9258478	0.8696445	0.8719815
O	0.92698985	0.86982075	0.99415465
O	0.92696125	0.96755035	0.11894715
O	0.92706475	0.9703245	0.2453393
O	0.9287709	0.9691206	0.36911105
O	0.92554195	0.9679261	0.49639245
O	0.92887655	0.96839585	0.62109795
O	0.92487235	0.9706701	0.7447035
O	0.9270504	0.97186715	0.86934765
O	0.9272001	0.96952725	0.9969133
O	0.07656225	0.07923375	0.0028036
O	0.07805005	0.0791414	0.12939615
O	0.07640555	0.0798172	0.2560043
O	0.0784746	0.08020655	0.37923155
O	0.0803713	0.080998	0.505753
O	0.07853485	0.07983065	0.63088575
O	0.0776577	0.08334915	0.75417925
O	0.0769871	0.0811942	0.87850785
O	0.07722055	0.1818769	0.0047062
O	0.07752765	0.1814789	0.1305172
O	0.07636415	0.18101035	0.254242
O	0.07498165	0.1799441	0.38051395
O	0.0783235	0.18106865	0.50522525
O	0.07892915	0.18247045	0.6303411
O	0.0792709	0.18299705	0.75452895
O	0.0794839	0.179865	0.8806565
O	0.07574345	0.28022385	0.0052549
O	0.07689445	0.2795109	0.1306739
O	0.0762479	0.2790023	0.25421075
O	0.0808401	0.2810526	0.3802141
O	0.077557	0.282691	0.50651955
O	0.0778375	0.27773065	0.63087335
O	0.07885945	0.28063445	0.7571826
O	0.07806515	0.2818284	0.8795272
O	0.07858365	0.38112035	0.00552425
O	0.0782304	0.38127285	0.1280403
O	0.0775417	0.3790561	0.2529893
O	0.07680525	0.3796875	0.380022
O	0.07775635	0.3818472	0.50816885
O	0.0785361	0.38269205	0.6286265
O	0.07909355	0.38158035	0.75582525
O	0.0808154	0.3821991	0.8787888
O	0.07707295	0.4795488	0.00589245
O	0.0776969	0.4828291	0.13424175
O	0.0767652	0.4825517	0.2557034
O	0.0773773	0.47912235	0.3787155
O	0.0778286	0.4807482	0.50201455
O	0.0772063	0.48165455	0.62999955
O	0.0771273	0.48067635	0.75390025
O	0.0777216	0.48149695	0.87802845
O	0.07663895	0.5788429	0.00750335
O	0.0779182	0.58377495	0.13046055
O	0.07756695	0.5806506	0.253455
O	0.0766797	0.5792878	0.3801105
O	0.0776406	0.58175015	0.5057888
O	0.0762982	0.5801335	0.6289708
O	0.07925095	0.5811652	0.7550115
O	0.0757309	0.5800103	0.88056105
O	0.07784325	0.679648	0.003995
O	0.0768306	0.6815767	0.13133655
O	0.07899485	0.68085935	0.2535227
O	0.0764622	0.67787425	0.3818223
O	0.07637905	0.68182645	0.5044146
O	0.07836505	0.68064895	0.62857105
O	0.07735655	0.6816169	0.7541311
O	0.07884385	0.6817959	0.87887425
O	0.0784942	0.7792988	0.0058366
O	0.0794463	0.782813	0.12825905
O	0.0780155	0.78189735	0.25592085
O	0.07787925	0.78075495	0.3813944
O	0.08083375	0.78188215	0.50726215
O	0.0803573	0.78019765	0.63022275
O	0.07811425	0.78260185	0.75830285
O	0.078976	0.78082155	0.8795674
O	0.0773258	0.88247305	0.004659
O	0.07882875	0.8819444	0.12959615
O	0.07755845	0.8802268	0.257541
O	0.0813103	0.8816176	0.38095635
O	0.08153245	0.879792	0.50508825
O	0.07777115	0.88084425	0.63096805
O	0.0785541	0.88182835	0.75568535
O	0.07780295	0.8807452	0.8792694
O	0.0791926	0.9811554	0.00630255
O	0.077475	0.9797093	0.1302963
O	0.0791384	0.97959335	0.25603185
O	0.07865145	0.9816671	0.3796055
O	0.0788869	0.98077905	0.50636355
O	0.07965075	0.98153995	0.62961555
O	0.08042975	0.9827219	0.753655
O	0.0788154	0.9801336	0.8801723
O	0.17478565	0.08159355	0.0048884
O	0.1769708	0.08018855	0.13151395
O	0.175737	0.0779293	0.25420515
O	0.1794671	0.0811705	0.38118865
O	0.17838285	0.0796397	0.50537725
O	0.17554045	0.07928045	0.6324645
O	0.1762908	0.079359	0.755753
O	0.17741285	0.0828039	0.87835155
O	0.1762466	0.18342695	0.00498345
O	0.1787568	0.18175225	0.12805035
O	0.1760444	0.17962605	0.25611315
O	0.17850245	0.18426755	0.37802845
O	0.17701755	0.1832963	0.50445215
O	0.18000725	0.18013865	0.6294088
O	0.1779361	0.1798937	0.7544243
O	0.1792767	0.1804262	0.87981065
O	0.1770136	0.2833316	0.0045317
O	0.17881375	0.2852003	0.13231085
O	0.17852435	0.2803464	0.2533791
O	0.17734225	0.2824884	0.3799038
O	0.1782386	0.28205655	0.50436015
O	0.1787119	0.2801894	0.6297882
O	0.17679155	0.2816678	0.7542949
O	0.17807145	0.2837194	0.8794011
O	0.177979	0.37926545	0.00506695
O	0.1766754	0.3816165	0.12847235
O	0.17735895	0.3794776	0.2559874
O	0.1787959	0.38090135	0.3789068
O	0.17715215	0.3801127	0.5042969
O	0.1791495	0.3767503	0.64846405
O	0.17711735	0.3803229	0.7547318
O	0.17679845	0.37925155	0.88105085
O	0.1790553	0.4841802	0.00530915
O	0.17678745	0.48034325	0.12842305
O	0.1797059	0.48175115	0.25296585
O	0.1796421	0.47914995	0.3788144
O	0.17717965	0.4773907	0.5059191
O	0.1777563	0.47923175	0.6298114
O	0.1785232	0.4794311	0.75415105
O	0.17725275	0.47802515	0.8786866
O	0.1776117	0.58076585	0.0070671
O	0.17838765	0.5809134	0.12853025
O	0.17627345	0.5789096	0.2555872
O	0.1782229	0.5803261	0.3820181
O	0.1779226	0.57941535	0.50572105
O	0.17778965	0.57782105	0.6296149
O	0.1773261	0.5790884	0.7573548
O	0.1761807	0.579252	0.881475
O	0.17767045	0.67735395	0.0034176
O	0.17844665	0.6818621	0.12856955
O	0.176467	0.68019755	0.2540433
O	0.1778093	0.68026735	0.37975465
O	0.1786202	0.68009245	0.5033605
O	0.17760855	0.678902	0.6311665
O	0.17780855	0.6814505	0.7562711
O	0.17730465	0.68100675	0.8786102
O	0.1760192	0.7801821	0.0044898
O	0.1781681	0.7808731	0.13071145
O	0.18159475	0.7827813	0.2559245
O	0.17937395	0.78370345	0.38325175
O	0.1803911	0.78436515	0.5068705
O	0.17912685	0.7797601	0.63159605
O	0.1772444	0.7809804	0.7554665
O	0.1781863	0.78350445	0.8790287
O	0.17600895	0.8784386	0.0061133
O	0.178374	0.88166585	0.1298258
O	0.17644125	0.88246705	0.25406255
O	0.17739565	0.8797561	0.37992875
O	0.17725445	0.88120955	0.5053885
O	0.177046	0.88031285	0.63078955
O	0.17853355	0.8815709	0.75409825
O	0.1783849	0.88005235	0.8784447
O	0.17716015	0.98152095	0.0049278
O	0.17712245	0.98168645	0.1293346
O	0.17821695	0.9804559	0.25576205
O	0.18063455	0.982322	0.37817695
O	0.1785878	0.98031695	0.5035775
O	0.17912955	0.98131315	0.6289918
O	0.1788819	0.97758035	0.7549039
O	0.1781525	0.98026905	0.87887145
O	0.2760126	0.0799391	0.00345515
O	0.2768165	0.08329675	0.1308053
O	0.2776664	0.07967275	0.25564285
O	0.28035925	0.0814987	0.3806869
O	0.27775215	0.07929175	0.5054934
O	0.27933245	0.07913755	0.6295885
O	0.27913745	0.07784525	0.7538303
O	0.2767521	0.0795794	0.8784198
O	0.27653045	0.17944395	0.0062867
O	0.2762999	0.18118725	0.13170865
O	0.2773414	0.1771741	0.25622075
O	0.2790992	0.17926955	0.38054965
O	0.27730045	0.18088675	0.50487525
O	0.2791693	0.18016395	0.63151815
O	0.27835335	0.17929385	0.75406825
O	0.2762058	0.1814874	0.8814825
O	0.27849475	0.28038845	0.0039651
O	0.2792111	0.2806921	0.1303252
O	0.27837495	0.28194	0.25551825
O	0.2773305	0.28417785	0.3811747
O	0.27988755	0.28410525	0.50770665
O	0.27882355	0.28071685	0.62913205
O	0.2765782	0.27931775	0.75650555
O	0.2809912	0.2841694	0.8807515
O	0.2766574	0.3826343	0.00497585
O	0.27783335	0.38112935	0.1323038
O	0.2728295	0.38944175	0.2686677
O	0.277452	0.37995595	0.37867255
O	0.27734865	0.3833717	0.50535335
O	0.2767738	0.37790525	0.6303701
O	0.2761418	0.37719785	0.75574605
O	0.276313	0.38113955	0.88194055
O	0.2779906	0.48377085	0.00372465
O	0.2765647	0.4814201	0.1290045
O	0.27721135	0.48179335	0.2553983
O	0.27765995	0.47935625	0.3812514
O	0.27527475	0.4790208	0.506145
O	0.2761678	0.48062345	0.62927435
O	0.27755255	0.48240375	0.7546452
O	0.27803985	0.47813445	0.88017825
O	0.27720145	0.5807798	0.00306815
O	0.27802	0.58034635	0.13079735
O	0.28053095	0.5810174	0.2563305
O	0.2808952	0.58022715	0.3797695
O	0.2779601	0.58172365	0.50813585
O	0.27944685	0.5797883	0.63022585
O	0.278102	0.5801387	0.75405735
O	0.28366145	0.5789022	0.893292
O	0.2771322	0.67968805	0.00529505
O	0.27986205	0.682061	0.12976655
O	0.27851285	0.6796385	0.25532165
O	0.27944555	0.68442615	0.3806937
O	0.2760721	0.6792878	0.50615115
O	0.2796874	0.6839603	0.6312819
O	0.27705775	0.6799734	0.75616085
O	0.27492665	0.67815225	0.87846125
O	0.2797828	0.77913385	0.0050136
O	0.2789211	0.7807948	0.1302252
O	0.27710095	0.7793534	0.25385145
O	0.275827	0.77975465	0.38214985
O	0.2783621	0.78134385	0.50697125
O	0.28044305	0.78523375	0.62988315
O	0.27747615	0.7822583	0.7548248
O	0.27958385	0.78224965	0.8791744
O	0.27535375	0.8802075	0.0041002
O	0.27814415	0.8820085	0.1298822
O	0.2778544	0.8826213	0.2556505
O	0.27697905	0.8797389	0.37957275
O	0.2781308	0.8831508	0.5035786
O	0.27988105	0.8816159	0.62883155
O	0.2759428	0.8793294	0.7532035
O	0.27736005	0.8823717	0.88107005
O	0.27886335	0.97947295	0.00510475
O	0.279201	0.981552	0.1312914
O	0.2785234	0.9783232	0.2543857
O	0.2804865	0.98081365	0.3798217
O	0.27844425	0.9804638	0.50517155
O	0.27947675	0.97901145	0.6291084
O	0.27888965	0.98238685	0.75367605
O	0.2795578	0.98181045	0.87904455
O	0.37768415	0.08162665	0.0035107
O	0.3775113	0.0771972	0.12968835
O	0.37808805	0.08157225	0.2562214
O	0.37841055	0.080048	0.38045325
O	0.3767372	0.0802698	0.50447045
O	0.378408	0.0780988	0.62973325
O	0.37737085	0.07652035	0.75479195
O	0.3775649	0.0795616	0.8791857
O	0.37873215	0.18337025	0.00456095
O	0.3783936	0.1818508	0.13196655
O	0.3806228	0.18004735	0.25307705
O	0.37721155	0.1803622	0.3820349
O	0.3772677	0.18379305	0.50583355
O	0.3778553	0.18110645	0.63297535
O	0.378819	0.1814788	0.75769515
O	0.37672625	0.18282735	0.88310855
O	0.38056375	0.27954905	0.00646205
O	0.3772536	0.2849582	0.13356905
O	0.37940325	0.2843948	0.2551888
O	0.37886335	0.2789232	0.37847365
O	0.38030125	0.28064545	0.50405575
O	0.37564205	0.2847614	0.62955145
O	0.37879605	0.2821661	0.7558053
O	0.37529005	0.2803055	0.8807887
O	0.37728655	0.3810104	0.0048434
O	0.37919485	0.381872	0.1286538
O	0.3806802	0.3797816	0.2545814
O	0.37783565	0.38247765	0.3793186
O	0.37830735	0.38233815	0.5067572
O	0.37711165	0.3776539	0.63185415
O	0.37743945	0.38246665	0.75554815
O	0.376675	0.37936115	0.87727265
O	0.37857485	0.4830038	0.0056084
O	0.376541	0.4786932	0.13183185
O	0.39301685	0.49554205	0.2514166
O	0.3785718	0.48455225	0.3806178
O	0.37731575	0.4793575	0.5062425
O	0.37548315	0.47968485	0.63129745
O	0.37779545	0.4826049	0.7542907
O	0.3773324	0.48168205	0.88129245
O	0.38028715	0.57855045	0.00380735
O	0.3775841	0.5792693	0.1302992
O	0.3809339	0.58067325	0.25143835
O	0.3823923	0.58627775	0.37434305
O	0.37829715	0.5804203	0.50556045
O	0.37601865	0.57899965	0.6318855
O	0.377887	0.57806545	0.75542105
O	0.3805034	0.5811031	0.8805244
O	0.38057065	0.68194095	0.0051354
O	0.37882105	0.68194765	0.1267544
O	0.37946645	0.6792101	0.2566608
O	0.37799095	0.68167935	0.3810681
O	0.37946785	0.68250145	0.50312915
O	0.37928095	0.6833476	0.62886655
O	0.37710885	0.68339315	0.7562657
O	0.37698105	0.68042865	0.88037845
O	0.38062	0.78180995	0.0070309
O	0.37667345	0.77935985	0.13024005
O	0.37657815	0.7827498	0.2557992
O	0.3793443	0.78354485	0.3785397
O	0.3785066	0.7824609	0.50625025
O	0.37938685	0.78158865	0.6306293
O	0.37749045	0.7829811	0.7550332
O	0.3775692	0.7812344	0.88118975
O	0.37710455	0.88397775	0.0057344
O	0.37712405	0.88127935	0.13096335
O	0.37747715	0.88214925	0.25509385
O	0.3784517	0.881596	0.37952675
O	0.37834285	0.88136915	0.5029413
O	0.3805392	0.8803328	0.6274278
O	0.37851745	0.88029125	0.7541969
O	0.37840485	0.8817887	0.8790926
O	0.3803629	0.9819249	0.0080498
O	0.379712	0.98198975	0.1294851
O	0.37748895	0.9804727	0.2551535
O	0.3787757	0.98076245	0.3802039
O	0.37606425	0.9809854	0.5020038
O	0.37805555	0.98033505	0.6303857
O	0.3756863	0.9792001	0.7548079
O	0.378866	0.98081765	0.88033435
O	0.47948835	0.08072825	0.00596635
O	0.4798263	0.08025305	0.12986855
O	0.4783735	0.08239015	0.25610455
O	0.47954035	0.0810674	0.3809114
O	0.4797043	0.0819173	0.5033993
O	0.47806925	0.0834244	0.63079155
O	0.4805414	0.085451	0.7543011
O	0.47750555	0.0783554	0.87979345
O	0.47794945	0.1824642	0.00815465
O	0.4804258	0.17998615	0.1314887
O	0.4787109	0.18058505	0.25550905
O	0.4779512	0.1765106	0.3776324
O	0.4785632	0.17970705	0.50530355
O	0.4779098	0.18029825	0.62909545
O	0.47852965	0.17950445	0.7563379
O	0.4805446	0.18220255	0.88212005
O	0.47851505	0.28166555	0.0049957
O	0.47759805	0.2817107	0.1296776
O	0.4802073	0.27992115	0.25729575
O	0.4780405	0.2787463	0.38063525
O	0.4757465	0.27801365	0.5048243
O	0.4772793	0.2832659	0.62942805
O	0.47938735	0.28031775	0.75579835
O	0.47877605	0.2832391	0.8785326
O	0.47712045	0.38232545	0.00491215
O	0.47911365	0.3840272	0.1296486
O	0.4787033	0.3821635	0.2558287
O	0.47828685	0.38124005	0.37808495
O	0.4805427	0.38228895	0.50479235
O	0.47640015	0.38163595	0.62970655
O	0.4780743	0.37935675	0.7549308
O	0.4777442	0.38154605	0.8790257
O	0.4770951	0.48091995	0.004489
O	0.47617015	0.4800598	0.12905585
O	0.47954825	0.4816682	0.2536778
O	0.4801233	0.482606	0.3798046
O	0.48025025	0.4822339	0.50204395
O	0.47926165	0.48168695	0.62757145
O	0.4772045	0.48006145	0.75413765
O	0.47678055	0.4816845	0.8818714
O	0.47971015	0.5827548	0.00556395
O	0.47877265	0.57994125	0.1302607
O	0.47892465	0.58131645	0.25540005
O	0.4792893	0.5827811	0.3799119
O	0.4766552	0.57849995	0.5043688
O	0.47638435	0.5792901	0.6296835
O	0.47792785	0.58169725	0.7537867
O	0.481196	0.57899635	0.8805835
O	0.4785593	0.6811944	0.00462585
O	0.4807823	0.68095215	0.1319678
O	0.4802708	0.680314	0.2535517
O	0.47809285	0.6806696	0.3792387
O	0.47958515	0.6831699	0.5063686
O	0.4769704	0.68181085	0.6312504
O	0.4808964	0.67894465	0.77414925
O	0.48100275	0.6784199	0.881304
O	0.47522145	0.7831994	0.00613825
O	0.4757706	0.78323955	0.13096695
O	0.4747551	0.7826301	0.25171205
O	0.4776869	0.7811598	0.3796574
O	0.47778465	0.78169105	0.5035668
O	0.47967705	0.77968555	0.6299685
O	0.47740445	0.77956885	0.75592705
O	0.47978355	0.78341165	0.8792813
O	0.4766739	0.8825388	0.00650105
O	0.4782891	0.8811026	0.12944735
O	0.47842635	0.8803871	0.256379
O	0.47609395	0.88026455	0.38025485
O	0.47533365	0.8793196	0.5028444
O	0.4764795	0.8794091	0.62998065
O	0.4792978	0.8826056	0.7551821
O	0.47936015	0.87895895	0.8787281
O	0.47637855	0.97964325	0.0047493
O	0.47734275	0.9783312	0.1315784
O	0.47792035	0.97994705	0.2552948
O	0.47748965	0.9819242	0.38025125
O	0.4767134	0.9810015	0.5052007
O	0.47687525	0.98350465	0.63397525
O	0.47784975	0.98204375	0.75489235
O	0.47882435	0.9816063	0.88070075
O	0.57892755	0.0815437	0.005549
O	0.5775739	0.080386	0.12899685
O	0.57568395	0.0787835	0.25634565
O	0.5774381	0.07800185	0.3801433
O	0.57714705	0.08051495	0.506911
O	0.57890475	0.0798112	0.6294384
O	0.577859	0.0824817	0.75362635
O	0.5799541	0.0819532	0.8800417
O	0.5937244	0.19274565	0.00423715
O	0.5773913	0.17844805	0.13147835
O	0.5774272	0.181059	0.2568387
O	0.5803901	0.1805923	0.3808909
O	0.57736455	0.1808116	0.505321
O	0.57814945	0.18205855	0.63269455
O	0.5787041	0.18269205	0.75392835
O	0.57876255	0.1800478	0.87951995
O	0.5782431	0.2789936	0.00747415
O	0.57716925	0.28122435	0.13114385
O	0.576245	0.2803102	0.2545288
O	0.57795415	0.2793209	0.38005685
O	0.57713665	0.2827297	0.50343715
O	0.57975125	0.28095855	0.6301016
O	0.57664435	0.28023245	0.7544554
O	0.5782175	0.28098005	0.8779029
O	0.57747515	0.38363425	0.00497375
O	0.578813	0.38260745	0.13036475
O	0.57810785	0.3822857	0.25610035
O	0.57873975	0.38094135	0.38246285
O	0.57919815	0.3795846	0.5040858
O	0.57903205	0.382342	0.6301457
O	0.57840365	0.38124625	0.7539715
O	0.5785089	0.3812958	0.8803722
O	0.5788656	0.4824674	0.004371
O	0.5776812	0.4815489	0.1308897
O	0.577319	0.48096685	0.2572351
O	0.5784896	0.47999065	0.38094765
O	0.5768679	0.48218605	0.5061602
O	0.57558515	0.48055565	0.6309263
O	0.57834875	0.4828249	0.75467975
O	0.57976105	0.48078465	0.87897465
O	0.57780275	0.58107195	0.0039583
O	0.57838665	0.58379215	0.1280643
O	0.5762034	0.5786071	0.2552731
O	0.57633125	0.579971	0.38113805
O	0.57620785	0.5778617	0.50456855
O	0.5779219	0.5774341	0.6288705
O	0.57905235	0.5808823	0.7537135
O	0.5779219	0.57924245	0.8794903
O	0.57991195	0.6826767	0.00780885
O	0.57871475	0.67844045	0.1306669
O	0.57839405	0.68010405	0.25504575
O	0.5776365	0.68070805	0.37956225
O	0.5772735	0.67688555	0.5074423
O	0.5784609	0.67810065	0.63071235
O	0.57765065	0.68208485	0.75576995
O	0.57816115	0.68019775	0.88062485
O	0.57842225	0.7802615	0.0037281
O	0.57850065	0.7809594	0.12939765
O	0.57714745	0.78113145	0.2548441
O	0.57570905	0.780853	0.379652
O	0.5760448	0.7804306	0.5052027
O	0.57550135	0.7811924	0.62868795
O	0.5778527	0.7805185	0.7572197
O	0.5763924	0.7795041	0.8798042
O	0.5767477	0.8828072	0.00961715
O	0.5780557	0.8813197	0.13046245
O	0.57693325	0.8812444	0.2535132
O	0.5790852	0.8805186	0.3779567
O	0.57818265	0.8815792	0.50486615
O	0.57787255	0.8807959	0.62870775
O	0.57909365	0.87949825	0.7549257
O	0.57777745	0.87935015	0.87910515
O	0.5787047	0.9824797	0.00546885
O	0.5794772	0.98126545	0.1277368
O	0.57902765	0.98048895	0.2535978
O	0.578685	0.97885065	0.3797112
O	0.577284	0.9820615	0.50379605
O	0.5759523	0.97649905	0.6303884
O	0.5782387	0.9825378	0.75660515
O	0.578128	0.9810259	0.8804067
O	0.67959595	0.0805344	0.0034149
O	0.6766104	0.08039895	0.1300248
O	0.67852015	0.08257905	0.25454935
O	0.67813015	0.0811738	0.37944035
O	0.6775597	0.08257625	0.50277265
O	0.6778218	0.08156765	0.62782175
O	0.68027915	0.0936619	0.74553835
O	0.6791547	0.0798574	0.87914905
O	0.6785915	0.1778748	0.0056834
O	0.67898215	0.1808573	0.13020705
O	0.67886515	0.1803045	0.25471085
O	0.6801777	0.18221715	0.37864775
O	0.6798274	0.1826925	0.50237295
O	0.6764826	0.1780671	0.6312456
O	0.67965495	0.1804717	0.7568832
O	0.67938865	0.1817658	0.87910925
O	0.67792395	0.28053405	0.00389185
O	0.6763428	0.28079095	0.1312338
O	0.67691825	0.28211705	0.25574845
O	0.67950475	0.28149735	0.377296
O	0.680809	0.27925275	0.5078131
O	0.67835025	0.2831142	0.63058375
O	0.6773317	0.2812747	0.7564753
O	0.67828895	0.2820983	0.8781051
O	0.6777393	0.38005105	0.0044381
O	0.678123	0.37884255	0.1310414
O	0.6782137	0.38227845	0.2551206
O	0.6762582	0.38080195	0.37976515
O	0.67886505	0.38075125	0.50523945
O	0.6783055	0.3818135	0.6302082
O	0.67697705	0.38122275	0.7537617
O	0.67968765	0.38033775	0.8796846
O	0.67793755	0.48152135	0.0060207
O	0.67777565	0.47781205	0.131098
O	0.6770144	0.47941455	0.2561322
O	0.67633015	0.4801716	0.37859645
O	0.67597045	0.47725695	0.50479055
O	0.68422655	0.485306	0.62574615
O	0.67955485	0.48152185	0.75599515
O	0.6776878	0.4797931	0.8776332
O	0.6868066	0.590199	0.0021976
O	0.6776403	0.57870465	0.1312046
O	0.68111755	0.59903895	0.24563075
O	0.67753705	0.57864225	0.3790451
O	0.67698195	0.57937895	0.505849
O	0.6798584	0.5805017	0.63054295
O	0.67720855	0.5798658	0.75545005
O	0.6780009	0.58111955	0.88149175
O	0.67982995	0.6809086	0.00390915
O	0.67697645	0.67895485	0.1288592
O	0.6783312	0.67955335	0.25625155
O	0.67894615	0.67945375	0.38106705
O	0.6786799	0.67821945	0.50449265
O	0.67916155	0.679831	0.6301155
O	0.67822725	0.677751	0.75574495
O	0.67838175	0.6818272	0.88105005
O	0.678816	0.7821083	0.00398625
O	0.678249	0.77981355	0.12827835
O	0.6781853	0.77905145	0.25282015
O	0.6761012	0.78153455	0.3792564
O	0.6790281	0.78279	0.502721
O	0.67677195	0.77973455	0.62804945
O	0.6772265	0.7798748	0.7573009
O	0.67743165	0.7815208	0.87972675
O	0.68078935	0.88208775	0.00372855
O	0.67847395	0.87721385	0.13081005
O	0.6759425	0.8810925	0.25391175
O	0.67645035	0.88036375	0.3794191
O	0.67760465	0.8822898	0.50502045
O	0.676167	0.8825486	0.62873685
O	0.67613	0.88127005	0.7541214
O	0.6769959	0.8813323	0.8806191
O	0.67880685	0.9823886	0.00578755
O	0.6794636	0.9782503	0.13024715
O	0.6782665	0.98148465	0.2538749
O	0.6787446	0.98071575	0.3779403
O	0.67792355	0.97927105	0.5061349
O	0.67813855	0.9821148	0.62871455
O	0.67728365	0.98243415	0.75328885
O	0.67882255	0.9811795	0.8805362
O	0.77682205	0.0816514	0.007789
O	0.7788848	0.0802484	0.12878525
O	0.77667685	0.07818375	0.2697554
O	0.77857545	0.08219735	0.3794167
O	0.7786108	0.08077595	0.50628645
O	0.7769456	0.0799291	0.6292821
O	0.77855695	0.0823244	0.75608585
O	0.778467	0.08022705	0.8808698
O	0.77781235	0.17805585	0.0050009
O	0.7784757	0.1802125	0.1284317
O	0.77453695	0.1787945	0.25645525
O	0.77830825	0.17955025	0.37825345
O	0.77947805	0.1807023	0.50243495
O	0.7770733	0.17997785	0.63073395
O	0.7773576	0.1801139	0.75534205
O	0.7792223	0.1818888	0.88262605
O	0.77851795	0.2812066	0.00600145
O	0.7787406	0.2807903	0.13015025
O	0.77642455	0.27984425	0.25457375
O	0.77762985	0.2814687	0.379235
O	0.7794222	0.28309725	0.5040298
O	0.7793612	0.2796725	0.62952105
O	0.77830905	0.2804569	0.75530665
O	0.77928075	0.2812865	0.8792322
O	0.7786129	0.3811259	0.00669315
O	0.77745655	0.3832065	0.1302938
O	0.77978845	0.37887475	0.2555004
O	0.77683835	0.3798047	0.37888245
O	0.77847505	0.37850505	0.50585635
O	0.77660085	0.38287675	0.6318593
O	0.77999255	0.382495	0.7549614
O	0.7767654	0.3804957	0.8818445
O	0.7777306	0.4792301	0.0031413
O	0.77578235	0.4850644	0.14663795
O	0.7784243	0.48108105	0.25331495
O	0.7776601	0.47998385	0.37894995
O	0.78006975	0.48170825	0.50533065
O	0.77845645	0.47895065	0.6312222
O	0.77978435	0.48172535	0.75580735
O	0.77956655	0.48052545	0.8802262
O	0.77831465	0.57920715	0.0050489
O	0.7783868	0.58095735	0.13102345
O	0.77579105	0.58020225	0.25422155
O	0.7765459	0.5802576	0.3788687
O	0.77873605	0.58157675	0.5041872
O	0.79166765	0.5964331	0.62624335
O	0.78076765	0.5828807	0.75367825
O	0.77910995	0.57848485	0.8791195
O	0.7763681	0.67909185	0.00405785
O	0.7773779	0.68266525	0.1310857
O	0.77752845	0.6821359	0.2548283
O	0.77566995	0.68112595	0.3791051
O	0.776665	0.6806486	0.5059478
O	0.78003705	0.68018355	0.6301317
O	0.77621085	0.6808776	0.7537079
O	0.77705925	0.679452	0.8807373
O	0.7770479	0.7791133	0.00463845
O	0.77609185	0.77907905	0.1299818
O	0.77776935	0.7808175	0.2552169
O	0.77675185	0.78089955	0.38043755
O	0.77418845	0.7776911	0.50619135
O	0.7780754	0.77886585	0.63152485
O	0.77900435	0.7836669	0.75576765
O	0.7788835	0.78077755	0.8786307
O	0.77784115	0.88014905	0.00374175
O	0.7770654	0.8796328	0.12750725
O	0.77925475	0.88081935	0.25292175
O	0.7791277	0.88128065	0.37945325
O	0.7786539	0.88071135	0.5037751
O	0.77458965	0.87870435	0.6314075
O	0.77916185	0.88127895	0.75345075
O	0.77792735	0.88186605	0.8799572
O	0.77728495	0.97925415	0.0037891
O	0.7785587	0.981564	0.12854055
O	0.77650875	0.98290505	0.25206955
O	0.77997735	0.9815396	0.38107815
O	0.77614735	0.9841775	0.50381435
O	0.77830275	0.98062445	0.62930575
O	0.77974265	0.9820482	0.75527335
O	0.77865335	0.9790735	0.8815869
O	0.87791155	0.08074195	0.00430745
O	0.87711975	0.07925495	0.1296742
O	0.87880975	0.08037195	0.25424325
O	0.8757359	0.07910715	0.37950895
O	0.878522	0.08288315	0.50522775
O	0.878395	0.08036605	0.62891415
O	0.8790759	0.08019875	0.754865
O	0.8790917	0.0803023	0.87901265
O	0.8782025	0.1814797	0.0030932
O	0.87680425	0.1795967	0.1301475
O	0.8786178	0.1780956	0.25557715
O	0.87855295	0.1826843	0.3787764
O	0.87681385	0.18078085	0.5026595
O	0.8776268	0.181154	0.63195595
O	0.87904285	0.1818246	0.7557014
O	0.87800895	0.1815996	0.8799694
O	0.878636	0.2794896	0.0041071
O	0.88011675	0.2824348	0.1287341
O	0.8782688	0.27984765	0.2553728
O	0.8782678	0.2806842	0.3802071
O	0.8756407	0.280013	0.50412065
O	0.87846235	0.27938595	0.630401
O	0.8765476	0.2807824	0.75760835
O	0.87963785	0.2816906	0.88048615
O	0.8778046	0.3818202	0.0054614
O	0.87702985	0.38132405	0.1290808
O	0.88109155	0.37994375	0.25569775
O	0.877384	0.37950865	0.37893125
O	0.87650215	0.38262405	0.5047239
O	0.87633975	0.382178	0.63163395
O	0.8796243	0.3799833	0.7581146
O	0.8772945	0.3797184	0.8800009
O	0.8784265	0.4801378	0.00513155
O	0.8778129	0.47898925	0.1279279
O	0.87554135	0.47987725	0.25557065
O	0.87797165	0.479783	0.38155315
O	0.8785741	0.48192485	0.50387035
O	0.88053495	0.47844145	0.63093665
O	0.8765257	0.4805841	0.7559393
O	0.8785173	0.48092215	0.8807973
O	0.8801017	0.57965515	0.0048745
O	0.87722775	0.58103805	0.1277043
O	0.87828185	0.5806194	0.2549301
O	0.87813285	0.57979545	0.377734
O	0.87731995	0.57989345	0.50524195
O	0.8767922	0.5812905	0.62876765
O	0.87666505	0.57978525	0.7578388
O	0.87896705	0.5785278	0.8778383
O	0.87753605	0.6816596	0.0031691
O	0.8786184	0.6804641	0.13125785
O	0.8793016	0.6810651	0.25245525
O	0.8775261	0.68006645	0.37963635
O	0.8776067	0.6827087	0.50494015
O	0.87857575	0.68250775	0.628489
O	0.878775	0.680367	0.75290515
O	0.8895887	0.6941859	0.8772014
O	0.8790134	0.78151275	0.0052346
O	0.8781933	0.7811892	0.1287518
O	0.87687385	0.7822915	0.25507205
O	0.87576835	0.7802832	0.37844875
O	0.87818	0.7797282	0.5074111
O	0.8786672	0.77996655	0.62978815
O	0.8780138	0.779431	0.75576045
O	0.8805466	0.78187385	0.87881
O	0.8773593	0.8799483	0.0047253
O	0.87656195	0.88095635	0.12893865
O	0.87920425	0.88380945	0.25581065
O	0.876849	0.87895775	0.37855075
O	0.8780509	0.87986365	0.5046302
O	0.8782736	0.88181355	0.62952125
O	0.87903725	0.8801108	0.75621225
O	0.8783466	0.88083755	0.8815157
O	0.87841065	0.9806508	0.0043028
O	0.8764746	0.9808213	0.1304629
O	0.8778568	0.97961055	0.2544102
O	0.87711495	0.97784485	0.3775128
O	0.8789621	0.9808009	0.5046636
O	0.87788975	0.97881755	0.6315473
O	0.87920625	0.9810048	0.75579345
O	0.8781021	0.9810749	0.88032225
O	0.9789045	0.08045305	0.00611445
O	0.9772582	0.08306755	0.12948815
O	0.97705535	0.07982845	0.2540957
O	0.9780927	0.0838089	0.37757065
O	0.97795905	0.0829558	0.50498135
O	0.9782349	0.07829465	0.63077115
O	0.97771005	0.08002065	0.75411
O	0.9776969	0.07895355	0.8821353
O	0.97845465	0.18076205	0.00391055
O	0.97699475	0.18107775	0.1311213
O	0.9761386	0.17789605	0.254051
O	0.97715525	0.1793796	0.37989595
O	0.976367	0.18065345	0.5075397
O	0.97842805	0.1788344	0.62981475
O	0.97864505	0.1824127	0.7551755
O	0.97754515	0.18194185	0.88152005
O	0.976146	0.28094795	0.0025623
O	0.97770025	0.2824314	0.13201475
O	0.9773066	0.2803847	0.25527075
O	0.9790838	0.2818122	0.3835802
O	0.97655615	0.28104865	0.50399775
O	0.97764925	0.2816257	0.6316385
O	0.98143605	0.27637875	0.7689837
O	0.9769644	0.28156075	0.87909155
O	0.9776011	0.3816499	0.00345595
O	0.9752308	0.3807975	0.1301755
O	0.9779689	0.3818282	0.2565939
O	0.9769317	0.38031095	0.37955305
O	0.9792596	0.3812847	0.50582045
O	0.97696025	0.38163265	0.6308503
O	0.98077355	0.3818957	0.75456925
O	0.97924755	0.3802757	0.88001055
O	0.97856345	0.4805002	0.00532365
O	0.97814265	0.4810816	0.12715215
O	0.97765635	0.48117855	0.25336805
O	0.97909865	0.4823001	0.3796878
O	0.9782071	0.48080515	0.5060945
O	0.97714945	0.48201105	0.63094615
O	0.97775125	0.48119285	0.75530325
O	0.97845095	0.48134895	0.8783177
O	0.9780998	0.5798736	0.00326745
O	0.9783906	0.5774067	0.12924165
O	0.9751461	0.5835716	0.25403165
O	0.975561	0.57787195	0.3791109
O	0.97639625	0.5793733	0.50479765
O	0.97869475	0.5795585	0.63225
O	0.9781464	0.57930625	0.7536499
O	0.9780631	0.58078565	0.8812463
O	0.97565245	0.67986405	0.00460495
O	0.9788924	0.6823214	0.1289964
O	0.9793536	0.6815749	0.2558832
O	0.979636	0.68121935	0.3817213
O	0.9769554	0.6814496	0.5050977
O	0.9782191	0.6805155	0.6302212
O	0.9795363	0.6816638	0.7545764
O	0.9794051	0.6801909	0.880338
O	0.97706915	0.77919035	0.0051627
O	0.97827575	0.78035055	0.13077455
O	0.979626	0.78258565	0.25816105
O	0.97818585	0.7809048	0.3797193
O	0.97756045	0.78145115	0.50613235
O	0.9797406	0.7807043	0.6299117
O	0.97933335	0.7802063	0.75575745
O	0.9787281	0.7788365	0.88015325
O	0.97976955	0.88198835	0.0031428
O	0.97793095	0.88265045	0.1303362
O	0.97755855	0.8797058	0.25409615
O	0.9772394	0.8824383	0.3807527
O	0.97996825	0.88311205	0.50402515
O	0.9790244	0.8808903	0.6326629
O	0.9773663	0.8795387	0.7533879
O	0.97835415	0.8800449	0.88042655
O	0.9797994	0.98127285	0.0028637
O	0.97850175	0.9806437	0.13007025
O	0.97880785	0.98253475	0.2510898
O	0.9791654	0.9836342	0.38103235
O	0.9793503	0.98314015	0.50444545
O	0.9800161	0.98108955	0.62948675
O	0.9801553	0.9817921	0.75464335
O	0.9783687	0.98039335	0.8809447
O	0.0739753	0.0314215	0.05755605
O	0.07468055	0.02784675	0.18169695
O	0.07368495	0.0308385	0.3063247
O	0.0721284	0.03009515	0.43304635
O	0.07496975	0.03072775	0.55657335
O	0.07547185	0.0304615	0.68198
O	0.0734106	0.0324293	0.80661595
O	0.0717365	0.03114555	0.9333733
O	0.07432795	0.1287378	0.0568685
O	0.07234405	0.1279745	0.181678
O	0.0750432	0.1275741	0.30841285
O	0.0723633	0.1314774	0.43337765
O	0.0720655	0.1305956	0.55808045
O	0.07315055	0.12937305	0.68323765
O	0.07291285	0.12608545	0.8071031
O	0.0724914	0.12953315	0.93262515
O	0.0739955	0.22826595	0.05661165
O	0.0725838	0.23028925	0.18294095
O	0.0729477	0.23051455	0.30604905
O	0.07408435	0.22881865	0.4332603
O	0.07406185	0.2302504	0.55719295
O	0.07332955	0.2290662	0.6797052
O	0.0716192	0.22985715	0.80685725
O	0.07205395	0.2317991	0.93243965
O	0.0744367	0.33103095	0.05893945
O	0.07123235	0.33283335	0.1843116
O	0.07372645	0.32899475	0.30704545
O	0.07268755	0.3282553	0.4327242
O	0.07116705	0.33099165	0.5580703
O	0.07375215	0.3298763	0.6817451
O	0.07345845	0.3268313	0.8078555
O	0.070799	0.33001025	0.93197085
O	0.0735001	0.42977755	0.056123
O	0.0726471	0.4299692	0.18100735
O	0.0724814	0.4292684	0.30491
O	0.0737554	0.43063395	0.43202025
O	0.0737128	0.43005915	0.55861695
O	0.073258	0.4315317	0.6823449
O	0.07405485	0.4283486	0.8077049
O	0.07286685	0.42790595	0.93259365
O	0.07143255	0.53077465	0.05923675
O	0.07254185	0.5311531	0.18036685
O	0.07299485	0.52905855	0.30677025
O	0.0738152	0.5276856	0.43279095
O	0.0712091	0.5294459	0.5587747
O	0.0746111	0.52812805	0.6831601
O	0.0719691	0.52934035	0.80681045
O	0.0728928	0.53135695	0.93259865
O	0.07209355	0.62756095	0.0565965
O	0.0726873	0.62681685	0.183261
O	0.0733233	0.6309561	0.30757475
O	0.07297405	0.6267405	0.4328663
O	0.07482165	0.62780905	0.5578718
O	0.07328325	0.63008215	0.68216375
O	0.0728204	0.627745	0.80760135
O	0.07374125	0.62890225	0.93200685
O	0.0730431	0.7313027	0.0568097
O	0.07381505	0.72414165	0.18333955
O	0.07541825	0.7311781	0.307745
O	0.0730324	0.7308854	0.4300596
O	0.07431175	0.7291245	0.5580393
O	0.07270895	0.73079375	0.68348065
O	0.0748292	0.72899835	0.807468
O	0.07123295	0.7289754	0.93317805
O	0.07330745	0.830637	0.056217
O	0.07371235	0.8303788	0.1826431
O	0.07278275	0.8301356	0.30814635
O	0.0729229	0.83216455	0.43245715
O	0.0748304	0.8311743	0.55882015
O	0.0744666	0.8300966	0.6829872
O	0.0745064	0.8273431	0.80790585
O	0.07224185	0.8292751	0.9324669
O	0.07198695	0.92874215	0.0574096
O	0.0753647	0.93021095	0.18288385
O	0.07364955	0.9289513	0.30740205
O	0.0732848	0.9313106	0.43385325
O	0.0752564	0.93097335	0.55733395
O	0.07249385	0.9303794	0.6804354
O	0.07305215	0.93075615	0.80840495
O	0.0747784	0.92774845	0.93157725
O	0.173895	0.0285901	0.0582672
O	0.1727827	0.0285077	0.18426105
O	0.1741705	0.02796445	0.3078399
O	0.17182705	0.0295335	0.4342928
O	0.17202595	0.03110895	0.55823115
O	0.17158725	0.0242808	0.66245975
O	0.1743801	0.0284769	0.80547725
O	0.17340345	0.0314052	0.9295229
O	0.17106	0.1325018	0.0560343
O	0.17545885	0.1284257	0.18077805
O	0.174887	0.12962295	0.3076223
O	0.17194975	0.13028425	0.41513115
O	0.17160265	0.1280929	0.5569438
O	0.1736614	0.1252279	0.68391815
O	0.17231055	0.129251	0.8078819
O	0.1719	0.1308658	0.9340338
O	0.17200375	0.2295502	0.0582949
O	0.1706462	0.23048365	0.1820489
O	0.17487385	0.2294184	0.3052546
O	0.17546345	0.2292105	0.41532905
O	0.1728035	0.23222375	0.5569975
O	0.1704737	0.2328133	0.6822431
O	0.1742771	0.2265576	0.80718545
O	0.17257115	0.23166385	0.93131845
O	0.17404255	0.33126455	0.0569583
O	0.1738947	0.3309623	0.1840569
O	0.17264585	0.33151945	0.3071717
O	0.1711682	0.33195815	0.43550555
O	0.1717699	0.32937765	0.55979405
O	0.1734011	0.3308391	0.68178085
O	0.1731704	0.3312671	0.80809995
O	0.1717292	0.329834	0.93191705
O	0.17254285	0.43206425	0.05701115
O	0.1725878	0.4325818	0.1806695
O	0.17287475	0.4281628	0.3076875
O	0.1750845	0.4299182	0.43084265
O	0.174335	0.43095865	0.55873855
O	0.1739006	0.432559	0.6846521
O	0.17479855	0.4310783	0.80725635
O	0.17408085	0.43155635	0.93225715
O	0.17123555	0.5301594	0.05861515
O	0.172451	0.52949765	0.1821702
O	0.174376	0.5290538	0.30763905
O	0.1748549	0.52943215	0.4341963
O	0.17291935	0.5285115	0.55919515
O	0.17195115	0.52995645	0.68339295
O	0.1743655	0.5280417	0.80795585
O	0.17170215	0.52850515	0.93197205
O	0.17416685	0.62732565	0.05590875
O	0.17014955	0.6283842	0.1810128
O	0.1732199	0.63075665	0.310277
O	0.1746543	0.6281805	0.43165765
O	0.1732921	0.630425	0.55679365
O	0.1730433	0.62825275	0.68299585
O	0.1749691	0.62866055	0.8076632
O	0.1716191	0.6290194	0.9313564
O	0.17422525	0.727759	0.056805
O	0.17609495	0.72994545	0.1823231
O	0.17480215	0.7289981	0.3059684
O	0.1712095	0.7313068	0.43329095
O	0.17431095	0.7282022	0.5588202
O	0.17557085	0.7285136	0.68319395
O	0.1721941	0.72798935	0.80714135
O	0.1742001	0.72932845	0.9331361
O	0.17433715	0.83109435	0.05731585
O	0.1753234	0.83284265	0.1827754
O	0.174934	0.8292639	0.30728585
O	0.1740315	0.82962365	0.43208085
O	0.17174855	0.83002445	0.5567877
O	0.17270905	0.8287609	0.6829631
O	0.17380015	0.8299305	0.80725515
O	0.1742534	0.8301791	0.93355855
O	0.1724402	0.9312636	0.05691455
O	0.1739508	0.9304433	0.1821385
O	0.1729684	0.92947845	0.30891915
O	0.1723358	0.9317796	0.4347253
O	0.17283275	0.930545	0.5574134
O	0.1723636	0.9296914	0.68370765
O	0.17406095	0.92936445	0.80702535
O	0.1726897	0.929548	0.93281665
O	0.27174675	0.0293869	0.0572523
O	0.27452315	0.02681645	0.18274625
O	0.2722743	0.0303117	0.30981105
O	0.27347675	0.0288231	0.43126435
O	0.2746107	0.03100695	0.5580556
O	0.27206245	0.02934635	0.6824164
O	0.272634	0.02954755	0.8059749
O	0.27168445	0.02651	0.93608205
O	0.2754781	0.12771535	0.05779735
O	0.2732566	0.1331366	0.1826787
O	0.2736246	0.12994705	0.30706355
O	0.27331455	0.12823015	0.4329025
O	0.27067535	0.12839185	0.55628375
O	0.2739744	0.1293081	0.68128985
O	0.27249845	0.1308853	0.8065396
O	0.27401775	0.1283881	0.93052855
O	0.2711392	0.2283389	0.05648445
O	0.2726285	0.22926935	0.1840561
O	0.27294105	0.2310119	0.31000665
O	0.2734419	0.22837265	0.4341596
O	0.2734668	0.2297878	0.5582202
O	0.27100785	0.2326924	0.68284205
O	0.2722091	0.22908415	0.8083692
O	0.27297755	0.2327176	0.932537
O	0.2741938	0.32844595	0.0589978
O	0.2714362	0.3309215	0.18428435
O	0.2736994	0.3338656	0.30736755
O	0.27606805	0.3280817	0.4330223
O	0.2728232	0.33021625	0.5570183
O	0.2744139	0.3301538	0.68319385
O	0.27063415	0.32937095	0.8066875
O	0.2716453	0.33119315	0.93112155
O	0.2724313	0.4311642	0.057117
O	0.27325255	0.43120255	0.18265605
O	0.2737147	0.43185995	0.31007635
O	0.2725033	0.42705315	0.43390035
O	0.2702053	0.4310294	0.5599622
O	0.2723687	0.43036155	0.68342895
O	0.2740284	0.4315677	0.80840715
O	0.2736049	0.42864025	0.93357475
O	0.27465945	0.5255247	0.0569611
O	0.27193405	0.5276107	0.1820266
O	0.27495795	0.5274464	0.3062455
O	0.2753023	0.529705	0.43274125
O	0.2730876	0.5301393	0.5575594
O	0.2740017	0.5270695	0.682182
O	0.27343465	0.53000915	0.8074733
O	0.27368105	0.53171265	0.9350968
O	0.273506	0.62922935	0.0574106
O	0.2730001	0.63052515	0.18322285
O	0.2743719	0.62666835	0.3074967
O	0.2749572	0.62933655	0.4309797
O	0.27309575	0.62835485	0.55676395
O	0.27487465	0.6276464	0.68222025
O	0.2691822	0.6293307	0.80707255
O	0.2745657	0.6301405	0.9312577
O	0.2716093	0.7288906	0.0560794
O	0.2775937	0.73495555	0.1815268
O	0.27376695	0.7301029	0.3095256
O	0.27245995	0.73188615	0.43220485
O	0.2739479	0.7299327	0.5592055
O	0.2735792	0.73132005	0.68538135
O	0.2741427	0.7307963	0.80731115
O	0.27343	0.73245025	0.93088525
O	0.2739942	0.83173665	0.0571859
O	0.2739524	0.83048565	0.18505725
O	0.27291615	0.82858875	0.3070892
O	0.2734372	0.83165295	0.4316483
O	0.2722782	0.83141225	0.5552387
O	0.27206565	0.8319667	0.6820437
O	0.2752492	0.82880635	0.80762765
O	0.2753692	0.82975645	0.9336909
O	0.27241335	0.93021945	0.05768645
O	0.27352425	0.931432	0.18312825
O	0.273761	0.9301777	0.308663
O	0.27365495	0.9274636	0.43035205
O	0.27394695	0.92753565	0.5549754
O	0.2726744	0.93083855	0.6841461
O	0.27359215	0.9324451	0.80823675
O	0.2724601	0.9303026	0.93297735
O	0.37417165	0.0293676	0.05667625
O	0.37393515	0.0271055	0.1823579
O	0.374346	0.0328764	0.3084163
O	0.3722316	0.0293573	0.43413725
O	0.37370625	0.0323326	0.55561615
O	0.37333365	0.0294152	0.68293065
O	0.3747167	0.0296836	0.8062758
O	0.37392245	0.0299388	0.9319573
O	0.37252085	0.12879745	0.05816385
O	0.3749137	0.12547045	0.18216385
O	0.373259	0.1282703	0.30751435
O	0.37295975	0.12839935	0.43231955
O	0.3741635	0.12705675	0.55768635
O	0.37268855	0.1302111	0.6844658
O	0.37153985	0.12785125	0.80609395
O	0.37233845	0.13009005	0.9322495
O	0.37353535	0.22915165	0.06091365
O	0.3744668	0.2285676	0.1829291
O	0.3754676	0.22736315	0.3072804
O	0.372413	0.2293017	0.4319253
O	0.3718326	0.2308812	0.5580958
O	0.3743709	0.2298418	0.68401275
O	0.37581455	0.2320314	0.80836095
O	0.37313085	0.23276765	0.9344746
O	0.3748325	0.330016	0.0607442
O	0.37462355	0.32861605	0.18232995
O	0.3746166	0.33211145	0.3085208
O	0.37381115	0.3328978	0.43424905
O	0.37355835	0.3326042	0.55763075
O	0.3735626	0.33305185	0.68530385
O	0.3726905	0.3303797	0.8071369
O	0.3721749	0.33096235	0.9310026
O	0.36052095	0.4435844	0.0613188
O	0.37423045	0.4306791	0.1807661
O	0.37363935	0.42922335	0.3064308
O	0.37207905	0.43013285	0.4318583
O	0.3744117	0.42604825	0.55796375
O	0.35918125	0.4434586	0.68730065
O	0.37309635	0.4276934	0.8096422
O	0.374189	0.4329232	0.93389125
O	0.37264075	0.5296065	0.0588757
O	0.3731607	0.5297238	0.1833226
O	0.37439675	0.5283423	0.30886745
O	0.37253255	0.532283	0.4344418
O	0.3745075	0.52512235	0.55945565
O	0.3712089	0.53117335	0.6809425
O	0.3727094	0.53076155	0.80701295
O	0.37173425	0.5298155	0.932481
O	0.37115115	0.6322493	0.04084145
O	0.37345335	0.6309179	0.18615175
O	0.3734998	0.62759725	0.30734605
O	0.37251695	0.6285006	0.43046145
O	0.37227865	0.627618	0.5567112
O	0.3722703	0.6290869	0.6815257
O	0.3713017	0.62774715	0.806146
O	0.37364185	0.6271232	0.93353705
O	0.37124165	0.7299818	0.05986985
O	0.37468065	0.72947595	0.1831536
O	0.3741978	0.72994575	0.30758045
O	0.37155105	0.73204305	0.4336596
O	0.37416115	0.73062985	0.55820305
O	0.37164345	0.7294503	0.68453825
O	0.3722056	0.7336392	0.8089216
O	0.37236685	0.73199705	0.93366535
O	0.37508725	0.82852675	0.0566743
O	0.3743654	0.8292737	0.18258805
O	0.3738936	0.8325643	0.30486835
O	0.37311935	0.83044325	0.43229555
O	0.37189295	0.8305763	0.5569595
O	0.37362925	0.82902645	0.6847813
O	0.37404825	0.82799495	0.80720335
O	0.3751782	0.83072535	0.93277105
O	0.37243665	0.9301967	0.0572005
O	0.3772731	0.93091615	0.18505115
O	0.37460125	0.9296035	0.3089962
O	0.37373875	0.9313141	0.43298755
O	0.37401605	0.9259409	0.55824075
O	0.37213015	0.92690275	0.6819571
O	0.3709699	0.9315414	0.8067078
O	0.36980835	0.9333955	0.9323425
O	0.4759592	0.02725075	0.0585743
O	0.47423325	0.0291121	0.18344975
O	0.47546815	0.0287708	0.30890475
O	0.47416965	0.0283071	0.43196095
O	0.4724631	0.03048665	0.5559112
O	0.4716592	0.0303745	0.68076425
O	0.47344685	0.0328523	0.80475765
O	0.47233305	0.0306362	0.93205655
O	0.47361745	0.13086795	0.0592886
O	0.4733182	0.1287004	0.18342855
O	0.4716109	0.13206775	0.30848635
O	0.4727196	0.13005015	0.43363105
O	0.4730461	0.1295966	0.5597765
O	0.474024	0.12823125	0.6822255
O	0.4735136	0.1278949	0.80674
O	0.47583505	0.12663425	0.930972
O	0.47237805	0.2329636	0.056095
O	0.472983	0.2295381	0.18399735
O	0.4732702	0.22883295	0.3086942
O	0.4732172	0.2281734	0.43206835
O	0.4728777	0.2302769	0.55653105
O	0.47261015	0.2302957	0.68456365
O	0.47647315	0.2266344	0.808346
O	0.47584395	0.23042625	0.93468575
O	0.47521825	0.32995375	0.0604901
O	0.4713709	0.32997005	0.182389
O	0.4738944	0.3301146	0.306309
O	0.47301065	0.3264418	0.4316237
O	0.4732671	0.3288711	0.55739575
O	0.47405585	0.32887135	0.6826375
O	0.4709428	0.3319849	0.8077108
O	0.47515235	0.33048705	0.93262735
O	0.47555685	0.426026	0.0578272
O	0.4727061	0.42781955	0.1835479
O	0.47476065	0.4303331	0.3065648
O	0.47154785	0.42777575	0.4330217
O	0.47173635	0.43229625	0.5572889
O	0.47300295	0.4301943	0.68500295
O	0.4736858	0.4284733	0.80800255
O	0.47252705	0.43141825	0.93052745
O	0.4735907	0.5316281	0.05796795
O	0.47441575	0.52947655	0.18481075
O	0.4723199	0.53193445	0.3073221
O	0.47374715	0.52982175	0.43220395
O	0.47414005	0.53023425	0.5567914
O	0.47468575	0.53088105	0.68227325
O	0.47297905	0.53029965	0.80691905
O	0.4740287	0.5297198	0.93202455
O	0.47279035	0.62883975	0.05716175
O	0.4693187	0.6441535	0.1878207
O	0.47517755	0.6263355	0.30752265
O	0.4726948	0.6286903	0.43136595
O	0.47262555	0.6286141	0.5578761
O	0.47369645	0.62789075	0.6826353
O	0.4715128	0.6278825	0.8064799
O	0.4738381	0.62870415	0.93432505
O	0.47368345	0.7306866	0.0553773
O	0.473769	0.73071725	0.18028085
O	0.4745117	0.72864645	0.307051
O	0.4587014	0.7430191	0.43505625
O	0.47509845	0.7318051	0.5583045
O	0.47192715	0.7301903	0.68195765
O	0.4723142	0.73400215	0.80683475
O	0.4735358	0.72967655	0.93256095
O	0.4740843	0.82871165	0.05844095
O	0.4730148	0.8324706	0.1823623
O	0.47317925	0.82949455	0.3068623
O	0.47219605	0.8297083	0.43306745
O	0.4672867	0.8370374	0.56021485
O	0.4749468	0.82937545	0.68368315
O	0.47167745	0.8302867	0.8076689
O	0.4741185	0.8290788	0.9322081
O	0.47476	0.932447	0.0577477
O	0.47514865	0.92928065	0.18232225
O	0.47267155	0.9269092	0.30507585
O	0.4732858	0.9279972	0.43130905
O	0.4709652	0.9275611	0.55759685
O	0.47092295	0.93032045	0.6817169
O	0.47202865	0.9297177	0.8094999
O	0.4753479	0.9279788	0.93112535
O	0.57246235	0.029987	0.05643495
O	0.5732573	0.02988705	0.18243025
O	0.5725856	0.0288664	0.30871615
O	0.57123245	0.0299572	0.432005
O	0.571398	0.03005425	0.556061
O	0.5758455	0.02713535	0.681648
O	0.57416665	0.02513735	0.80688695
O	0.57029205	0.0287434	0.9327277
O	0.57307235	0.12851995	0.05836775
O	0.57281515	0.1283674	0.18490165
O	0.57346505	0.1283355	0.30758285
O	0.57336805	0.12820975	0.4343507
O	0.57461635	0.1314494	0.55766255
O	0.57208355	0.1291442	0.6817585
O	0.57212395	0.12910755	0.80743255
O	0.5742536	0.12858145	0.9344246
O	0.57410885	0.2274159	0.05746525
O	0.5708052	0.2305008	0.1826879
O	0.57411055	0.22940195	0.30888255
O	0.572473	0.23239295	0.4355394
O	0.5724148	0.2296856	0.5560592
O	0.57413775	0.22960615	0.6833943
O	0.5738471	0.23200955	0.80700475
O	0.5769889	0.2297454	0.93184385
O	0.57307125	0.33440115	0.05859475
O	0.5734939	0.3313606	0.18312445
O	0.57308225	0.3312882	0.3080965
O	0.5717581	0.33116765	0.4339052
O	0.57506885	0.32834105	0.5563704
O	0.57455525	0.330798	0.68185705
O	0.57268375	0.32766825	0.8080697
O	0.57386205	0.33050315	0.93377705
O	0.57334395	0.431887	0.0577218
O	0.573822	0.4302282	0.185069
O	0.57312405	0.4330668	0.30740095
O	0.57431655	0.4285919	0.4337078
O	0.57328685	0.42804935	0.5568077
O	0.57257995	0.43303575	0.6813789
O	0.57479095	0.42912955	0.8062916
O	0.5710832	0.4321017	0.9329078
O	0.5739941	0.52917065	0.0603966
O	0.57309535	0.53110995	0.1814824
O	0.5729526	0.5306225	0.3079373
O	0.57465225	0.5268008	0.4323714
O	0.5740112	0.52881195	0.5571339
O	0.57370155	0.52770275	0.6825979
O	0.57219085	0.53142925	0.80719
O	0.57293305	0.52848705	0.93418735
O	0.5742823	0.6302418	0.0571062
O	0.57384705	0.6311202	0.18216525
O	0.5736532	0.62827165	0.30851905
O	0.5721363	0.6277068	0.4330206
O	0.5731144	0.6287165	0.55851525
O	0.5742371	0.6304496	0.6832269
O	0.574301	0.6313438	0.80810075
O	0.5732431	0.62866815	0.93412225
O	0.5733236	0.7305797	0.05843445
O	0.5665912	0.74752125	0.18245395
O	0.5707516	0.7318669	0.3076704
O	0.5744176	0.72886605	0.4338628
O	0.5710549	0.72892985	0.55565095
O	0.5725948	0.7290212	0.6825511
O	0.5747571	0.72932485	0.80904275
O	0.5728762	0.73040775	0.9328566
O	0.5741499	0.82972105	0.057583
O	0.5730285	0.83144095	0.1808293
O	0.5715503	0.8313846	0.30708735
O	0.5747849	0.8305775	0.4304126
O	0.57409385	0.8287505	0.5583256
O	0.57436715	0.831606	0.6852504
O	0.5736845	0.83147925	0.80730985
O	0.57583365	0.82941475	0.9326286
O	0.57339895	0.93150715	0.05492425
O	0.57364895	0.93042825	0.1790748
O	0.57308175	0.93094495	0.3070681
O	0.57235265	0.92994995	0.43122765
O	0.57221345	0.92826965	0.55665705
O	0.5713893	0.92847485	0.68189765
O	0.5759604	0.92726215	0.80761935
O	0.5749652	0.9311999	0.93431575
O	0.6729054	0.03045935	0.0566388
O	0.6738731	0.0300355	0.18339835
O	0.6735061	0.02947745	0.30683405
O	0.67548985	0.0292859	0.43376295
O	0.67081025	0.03051295	0.555578
O	0.67366265	0.02857175	0.6824798
O	0.67360405	0.03166885	0.809269
O	0.67255725	0.03273515	0.93350135
O	0.6753191	0.1285928	0.0589064
O	0.67480985	0.12827405	0.1810701
O	0.673477	0.1282492	0.3070956
O	0.6740554	0.12993455	0.4326182
O	0.67433655	0.1272936	0.55727065
O	0.67292825	0.13244205	0.68174985
O	0.67329945	0.12792795	0.80726385
O	0.6731197	0.13059795	0.93204065
O	0.6716002	0.23233175	0.0590994
O	0.6716865	0.22868835	0.182371
O	0.6699605	0.23382535	0.3066489
O	0.6734511	0.23058405	0.4352285
O	0.67282225	0.2324982	0.5598652
O	0.6724284	0.23083125	0.6822192
O	0.67290915	0.2315462	0.8069784
O	0.67462615	0.2281665	0.9325935
O	0.6553751	0.34807925	0.06043375
O	0.67301625	0.3294317	0.1832139
O	0.6731462	0.33141925	0.3105126
O	0.6724386	0.3309527	0.4306247
O	0.67446555	0.33257055	0.55702215
O	0.67173445	0.33168345	0.6830458
O	0.67550275	0.330301	0.81065345
O	0.673243	0.32962685	0.9328543
O	0.6725685	0.4284661	0.05748905
O	0.67305165	0.4312023	0.18450265
O	0.67389865	0.42737575	0.30835045
O	0.67283395	0.4306472	0.4310471
O	0.675626	0.429451	0.55469665
O	0.67300015	0.4293201	0.68345995
O	0.673522	0.4285921	0.8089929
O	0.6734742	0.43166675	0.9326134
O	0.6739727	0.5298408	0.0586695
O	0.67207455	0.52781885	0.1816289
O	0.67332215	0.53110575	0.3077018
O	0.6730937	0.5306279	0.4355799
O	0.67126695	0.52893975	0.55558605
O	0.67300445	0.5287202	0.68045595
O	0.6758444	0.52665405	0.8076755
O	0.6742908	0.5297512	0.9325799
O	0.6749328	0.6277533	0.05850325
O	0.67264085	0.63061625	0.18174385
O	0.67328205	0.62977935	0.3064802
O	0.6737467	0.62914205	0.43217755
O	0.674095	0.62761085	0.55727065
O	0.67315215	0.6292891	0.68302735
O	0.6750741	0.6290409	0.80746965
O	0.67309155	0.6319956	0.9329562
O	0.67231115	0.73107345	0.056579
O	0.67242445	0.7299057	0.18293215
O	0.67258355	0.72831605	0.30669665
O	0.6718751	0.73090965	0.43232655
O	0.67250765	0.7256335	0.5590718
O	0.6734199	0.7270435	0.68414925
O	0.67262	0.72901635	0.8065704
O	0.6730152	0.7309396	0.9342218
O	0.67269885	0.82988565	0.05440475
O	0.6728672	0.82879765	0.1805668
O	0.67497435	0.8331785	0.30800015
O	0.67344125	0.8291103	0.4315327
O	0.674894	0.8278831	0.55733195
O	0.67332385	0.8311224	0.684017
O	0.6745073	0.82835195	0.80724935
O	0.67147365	0.8298923	0.9345266
O	0.67259345	0.93008465	0.05799325
O	0.6721405	0.929178	0.18272095
O	0.672785	0.92982435	0.30575795
O	0.66954425	0.93137905	0.4317568
O	0.6706744	0.93129225	0.557647
O	0.6724966	0.9307631	0.6816087
O	0.67358425	0.92846415	0.8066468
O	0.6756412	0.930222	0.9335673
O	0.77089465	0.02883495	0.0554105
O	0.77216525	0.03061585	0.1803062
O	0.77112525	0.02949965	0.30787525
O	0.7726566	0.03047895	0.43076305
O	0.77276435	0.02891465	0.55586985
O	0.7741472	0.0262937	0.6841379
O	0.77261365	0.0302774	0.80666925
O	0.7736822	0.03155775	0.9323138
O	0.77418765	0.1288181	0.05657305
O	0.77255845	0.1316258	0.18114025
O	0.77253535	0.13258665	0.3077783
O	0.77159925	0.1302799	0.43117075
O	0.7746032	0.131746	0.5563606
O	0.7743315	0.1275454	0.68421805
O	0.77366035	0.12683505	0.8084431
O	0.77503565	0.125667	0.9316547
O	0.77365075	0.2287328	0.0574518
O	0.7722983	0.23066535	0.1841884
O	0.77470115	0.22885675	0.30798365
O	0.7751092	0.2298879	0.43232945
O	0.7737759	0.23139765	0.5583336
O	0.7735884	0.2271997	0.68207605
O	0.77272675	0.22808945	0.8088378
O	0.7708783	0.22948175	0.9339619
O	0.77203175	0.33089265	0.05936275
O	0.7667762	0.3458265	0.1910601
O	0.77451045	0.32906575	0.3087409
O	0.77357395	0.3298762	0.43320065
O	0.772455	0.3298685	0.55691295
O	0.7740889	0.3296487	0.6789107
O	0.77531275	0.32806235	0.80843285
O	0.77297275	0.33132915	0.9329521
O	0.7753534	0.43041125	0.05772005
O	0.7692432	0.4291077	0.1828886
O	0.77274605	0.4302253	0.30915795
O	0.77268425	0.4291807	0.4338789
O	0.7731107	0.4306286	0.55821485
O	0.77272805	0.4292149	0.6836775
O	0.77266095	0.430702	0.8052903
O	0.7723657	0.42892775	0.93125595
O	0.77157605	0.53021245	0.0571949
O	0.77415125	0.52973015	0.1801706
O	0.77346585	0.5290444	0.3077272
O	0.7722686	0.5273348	0.43318375
O	0.7739114	0.5288374	0.5581418
O	0.77330725	0.53073835	0.6840025
O	0.7757395	0.52792825	0.80611095
O	0.7743951	0.5289837	0.9311353
O	0.77432915	0.63083075	0.05805395
O	0.77134765	0.63128415	0.1823252
O	0.77384275	0.6304173	0.30652105
O	0.7757941	0.62678815	0.43463065
O	0.77629735	0.63026635	0.5575188
O	0.77193425	0.6306246	0.68328355
O	0.7745836	0.62761725	0.80891335
O	0.77371545	0.62944225	0.9331663
O	0.773183	0.7286323	0.05741505
O	0.7713516	0.72994615	0.18153535
O	0.76963125	0.73078185	0.3069814
O	0.77303175	0.72945805	0.43255245
O	0.7742321	0.7296059	0.5599347
O	0.7740202	0.7279261	0.68533745
O	0.7716339	0.7297636	0.806875
O	0.7730283	0.7282689	0.9334792
O	0.771427	0.8306789	0.0574434
O	0.77068885	0.83008345	0.1814894
O	0.7717098	0.8308587	0.28894705
O	0.7738719	0.8293073	0.43213495
O	0.77298635	0.83345225	0.55589835
O	0.77324795	0.82819625	0.6836218
O	0.7717637	0.8309477	0.8085845
O	0.77371085	0.82980115	0.93348975
O	0.77308775	0.930877	0.05709875
O	0.77101035	0.9314737	0.18273815
O	0.7732345	0.92895115	0.3077408
O	0.77264165	0.9317621	0.43166435
O	0.7727724	0.9309215	0.5588241
O	0.77303665	0.9305479	0.68007075
O	0.7729599	0.93143685	0.80810225
O	0.7743594	0.9318369	0.93288445
O	0.873416	0.0301399	0.05667495
O	0.8734115	0.029138	0.18321845
O	0.8723434	0.0305086	0.3068423
O	0.8740908	0.029908	0.43411005
O	0.8749918	0.0299212	0.55790165
O	0.87492405	0.0261957	0.68261065
O	0.8741317	0.0289344	0.80893705
O	0.87528585	0.0298348	0.9333183
O	0.87263935	0.13107425	0.0586325
O	0.8721856	0.1312604	0.17891865
O	0.87245885	0.1280616	0.30433445
O	0.8747151	0.1296965	0.4345868
O	0.8733964	0.12966965	0.5558054
O	0.873727	0.1292539	0.68190605
O	0.87548185	0.13017345	0.8082333
O	0.8727706	0.12899825	0.93225815
O	0.87206965	0.2303372	0.05817375
O	0.87341335	0.230984	0.18247445
O	0.8600881	0.24483895	0.3150097
O	0.8719414	0.22936085	0.43196185
O	0.8740198	0.2302667	0.5588044
O	0.8737353	0.2298983	0.68088125
O	0.8731681	0.2303573	0.803378
O	0.87307225	0.2292731	0.93107925
O	0.8746442	0.32969245	0.0562351
O	0.87446205	0.33233645	0.18309095
O	0.8731758	0.33142375	0.30735665
O	0.8747413	0.32894675	0.43361425
O	0.8717923	0.33067585	0.5576599
O	0.8724124	0.3312018	0.68390655
O	0.872539	0.332016	0.80679705
O	0.8750415	0.32885895	0.9321171
O	0.87376525	0.4289368	0.05681325
O	0.87440535	0.42917395	0.18230195
O	0.8744802	0.4306289	0.3063534
O	0.8586017	0.4475613	0.4381496
O	0.87267575	0.4305538	0.55832925
O	0.87264335	0.43080545	0.681662
O	0.8718387	0.42956485	0.80426805
O	0.8731599	0.43010495	0.93181945
O	0.87272685	0.5284567	0.0548517
O	0.8731592	0.52727465	0.18220345
O	0.87234595	0.52955965	0.30873835
O	0.87454235	0.5274693	0.4350029
O	0.8745495	0.5303215	0.5556606
O	0.87315685	0.53130515	0.6850023
O	0.87119275	0.529284	0.80939115
O	0.87237655	0.5320616	0.93296295
O	0.87238495	0.6288608	0.0567737
O	0.87295035	0.62998985	0.18170095
O	0.874266	0.62730915	0.30872325
O	0.8731526	0.62872805	0.4329985
O	0.8733308	0.6303692	0.55613845
O	0.8741958	0.62927695	0.6840974
O	0.87423085	0.62746415	0.8073097
O	0.872588	0.63139135	0.93274475
O	0.8736551	0.7287107	0.0566391
O	0.87236435	0.73194855	0.18291415
O	0.87123305	0.73157695	0.3070132
O	0.87392305	0.7278554	0.4313487
O	0.8724421	0.72798455	0.5567584
O	0.8730685	0.7298656	0.682522
O	0.8732756	0.72911565	0.80989555
O	0.87340775	0.72886085	0.9314518
O	0.8734438	0.82895365	0.05639025
O	0.872742	0.8288831	0.1829849
O	0.87395755	0.8308156	0.3071376
O	0.8728099	0.8291214	0.43174795
O	0.8745748	0.8317586	0.5562915
O	0.87136505	0.8275913	0.6811533
O	0.8712497	0.83130655	0.806959
O	0.87511885	0.8284709	0.93363405
O	0.872018	0.93160095	0.0574421
O	0.8720202	0.9286195	0.1810852
O	0.87241935	0.93482185	0.3092425
O	0.87333375	0.9298907	0.4323928
O	0.8733665	0.9328011	0.55952625
O	0.87361625	0.9309469	0.6803996
O	0.87249945	0.9289019	0.8082602
O	0.87174185	0.9308218	0.93388695
O	0.97212545	0.03164215	0.0557946
O	0.97551985	0.0291705	0.1833769
O	0.97464965	0.0313417	0.3075559
O	0.9734627	0.03069215	0.43238675
O	0.9731312	0.0274929	0.5585164
O	0.97334305	0.03190725	0.68275135
O	0.97394155	0.0299542	0.80888255
O	0.9721159	0.0295222	0.9324548
O	0.97155955	0.13033745	0.0559902
O	0.97261565	0.1273293	0.18247095
O	0.97202845	0.1301864	0.30873645
O	0.97570805	0.12615465	0.4330152
O	0.9718389	0.1271064	0.556729
O	0.9716651	0.13033975	0.68326375
O	0.97236985	0.13337805	0.80861815
O	0.97463175	0.13166715	0.93381125
O	0.97326315	0.23082625	0.0567583
O	0.97372385	0.2281181	0.1822932
O	0.97127045	0.2306479	0.3057161
O	0.9707931	0.2300526	0.43433205
O	0.97255015	0.2302745	0.5586371
O	0.97136145	0.2318246	0.68423565
O	0.973779	0.2300179	0.80941905
O	0.9729902	0.23041585	0.9308924
O	0.9731489	0.329328	0.05917335
O	0.97219635	0.33108605	0.1847571
O	0.97294745	0.3304943	0.30823455
O	0.9738895	0.326958	0.43243095
O	0.9740771	0.33013385	0.55817335
O	0.97395125	0.3295869	0.68250155
O	0.9725052	0.3330262	0.80814935
O	0.9735523	0.3301765	0.9307028
O	0.9744416	0.4312013	0.05910885
O	0.97251315	0.42963225	0.182529
O	0.97497995	0.4273738	0.3067183
O	0.97316995	0.4296219	0.43192525
O	0.9724053	0.4310054	0.556435
O	0.97220375	0.43087255	0.68193425
O	0.97414505	0.4268934	0.8065275
O	0.97301965	0.42956705	0.93375495
O	0.9743685	0.5293408	0.0563178
O	0.9722709	0.5297365	0.181852
O	0.97247345	0.5306848	0.30724705
O	0.97470645	0.52561475	0.43216735
O	0.9724713	0.5294766	0.55739185
O	0.97456985	0.5302647	0.68489565
O	0.9731595	0.5291317	0.8076926
O	0.97195395	0.53158925	0.93354985
O	0.96997875	0.63181525	0.05706575
O	0.9751785	0.62619855	0.18192135
O	0.9727459	0.6306577	0.3085957
O	0.9747508	0.6285392	0.4323499
O	0.97464075	0.6289069	0.56052835
O	0.97430915	0.6295811	0.68163365
O	0.97196015	0.63044675	0.80847295
O	0.97375945	0.6305419	0.93319425
O	0.97290175	0.7300005	0.0570626
O	0.97399885	0.72984645	0.1847282
O	0.97438225	0.72880615	0.3072465
O	0.9749561	0.7313053	0.4299218
O	0.9745444	0.7287574	0.5580034
O	0.97310225	0.7289521	0.6839783
O	0.9728296	0.7304519	0.80770045
O	0.97217375	0.7325807	0.9342884
O	0.97306025	0.83145745	0.0583172
O	0.97388455	0.83229085	0.182069
O	0.97585375	0.8309645	0.3089954
O	0.972119	0.83178725	0.4331495
O	0.9735114	0.8300838	0.55645015
O	0.9754145	0.82888385	0.6833757
O	0.97505255	0.83108025	0.80669905
O	0.9749049	0.82992055	0.93241235
O	0.97423925	0.9289653	0.0567204
O	0.9697723	0.9329455	0.1810834
O	0.97548045	0.93025405	0.30735275
O	0.9737591	0.93193115	0.431914
O	0.9724881	0.93580345	0.5588088
O	0.9745231	0.92961855	0.6825737
O	0.97467935	0.9291506	0.8056973
O	0.97168735	0.93237975	0.9318867
O	0.0258523	0.0180505	0.0673009
O	0.02385935	0.0153042	0.19102385
O	0.0218861	0.01841465	0.31559915
O	0.0215063	0.01763485	0.44229305
O	0.02150335	0.01623095	0.5661879
O	0.0230167	0.01812575	0.6932888
O	0.0195607	0.01832275	0.8156825
O	0.0228014	0.01783455	0.94204725
O	0.02226185	0.1186985	0.0686577
O	0.0242547	0.11903315	0.19240055
O	0.0216161	0.1177919	0.3150919
O	0.0240025	0.11934865	0.44153535
O	0.0238239	0.11934215	0.56933555
O	0.0205493	0.11788335	0.69212275
O	0.0229072	0.11813585	0.81713305
O	0.02196655	0.11974215	0.94486495
O	0.0214071	0.21883025	0.0679498
O	0.02347	0.22008655	0.19077685
O	0.0237702	0.218463	0.3150535
O	0.02414435	0.21689065	0.4440342
O	0.02042475	0.21977075	0.5660422
O	0.02108845	0.22094895	0.6923573
O	0.02132545	0.21904145	0.814956
O	0.01903705	0.2179709	0.94111995
O	0.02194265	0.3183309	0.06686915
O	0.02048055	0.3169579	0.1925437
O	0.0218945	0.3178076	0.31812875
O	0.0212728	0.31993115	0.4437565
O	0.0230486	0.3191856	0.56580185
O	0.0204071	0.3169774	0.6939707
O	0.02214075	0.31843445	0.81570455
O	0.0212288	0.31859715	0.9415838
O	0.0241219	0.4215542	0.06639505
O	0.0215008	0.4179207	0.19085265
O	0.021874	0.4171585	0.3153094
O	0.0209872	0.41799075	0.44121235
O	0.0210426	0.4185527	0.56926735
O	0.0194637	0.41941105	0.693149
O	0.0227514	0.4202243	0.8185242
O	0.02306995	0.4175855	0.94311625
O	0.02385145	0.5189244	0.0670495
O	0.02278905	0.5182893	0.1925631
O	0.0235456	0.5183999	0.31790125
O	0.0226703	0.5178958	0.4433322
O	0.02299005	0.51965705	0.56722285
O	0.02166995	0.5188048	0.6932397
O	0.0226572	0.5199039	0.8162092
O	0.02088205	0.5181095	0.94183715
O	0.02295705	0.61804045	0.068935
O	0.02172605	0.6172869	0.19239565
O	0.0218091	0.6182146	0.3188756
O	0.0224905	0.6154647	0.44229195
O	0.0209936	0.61769825	0.5684603
O	0.024164	0.6184138	0.6942396
O	0.0220981	0.6173679	0.81760835
O	0.02142785	0.61794605	0.9411183
O	0.0227947	0.7187916	0.0689954
O	0.0229006	0.7164452	0.1917569
O	0.0189734	0.7168792	0.31908
O	0.02244555	0.7185105	0.4417789
O	0.02326585	0.71966065	0.5682498
O	0.02259285	0.71764585	0.68955215
O	0.022918	0.7179762	0.8166355
O	0.02207955	0.7169276	0.94278225
O	0.0203331	0.81723515	0.0679599
O	0.02218045	0.82024485	0.1928932
O	0.0210966	0.8181073	0.31588135
O	0.02017265	0.8174339	0.44150975
O	0.02372325	0.81826415	0.5655777
O	0.0227898	0.81743685	0.69050995
O	0.0221371	0.81782785	0.8173562
O	0.02119605	0.81805355	0.9432574
O	0.0244664	0.919381	0.0639789
O	0.0219495	0.91971075	0.19340755
O	0.0206199	0.91999515	0.31867195
O	0.02242495	0.9215863	0.44215285
O	0.0211814	0.91724085	0.56585185
O	0.02200225	0.9190893	0.69184665
O	0.02226965	0.91917605	0.81931195
O	0.02198985	0.91924855	0.9420071
O	0.12184155	0.0171535	0.0656005
O	0.1215625	0.0175188	0.19067635
O	0.125574	0.0168868	0.3147422
O	0.1236993	0.01866485	0.44359825
O	0.12289105	0.01791875	0.56732
O	0.12235695	0.01745235	0.6917153
O	0.122634	0.0178193	0.8168197
O	0.12261375	0.01669895	0.9408072
O	0.1216959	0.1197001	0.06702285
O	0.1210975	0.1153925	0.1899131
O	0.1215153	0.1186965	0.3175852
O	0.12391545	0.11784385	0.4405329
O	0.1229769	0.1175912	0.5677641
O	0.1205678	0.11620835	0.68971355
O	0.12385535	0.1183989	0.81703735
O	0.123317	0.11866515	0.94261145
O	0.1222332	0.21942825	0.06737555
O	0.1231073	0.2189934	0.1935009
O	0.12449465	0.2192617	0.31579885
O	0.12403615	0.2192954	0.44346045
O	0.1244035	0.21628925	0.5679917
O	0.1210932	0.21734785	0.69334675
O	0.1247567	0.22041345	0.8183807
O	0.1206739	0.21988785	0.9419822
O	0.1210197	0.3192973	0.06699815
O	0.1214664	0.31536045	0.1905346
O	0.12158585	0.31827055	0.3179036
O	0.1229024	0.32023945	0.44085615
O	0.1216847	0.31815655	0.5676557
O	0.12353685	0.32023065	0.69401335
O	0.1222178	0.32054815	0.8166654
O	0.1221489	0.31643935	0.9434762
O	0.12317045	0.41777345	0.06791225
O	0.12202365	0.41951665	0.1901422
O	0.12165105	0.4205281	0.3186621
O	0.12251965	0.4204695	0.4428088
O	0.12271885	0.41698385	0.56749145
O	0.12123525	0.41908245	0.6917599
O	0.1217701	0.4194873	0.81750815
O	0.120561	0.41757795	0.94196855
O	0.12211295	0.51583075	0.06481095
O	0.1211417	0.51815585	0.19311415
O	0.12438535	0.52012375	0.31610785
O	0.1228102	0.51876625	0.44250075
O	0.12452615	0.5202395	0.56922355
O	0.12331255	0.51624605	0.69244985
O	0.1232342	0.51851275	0.81616055
O	0.12249835	0.5182628	0.94251675
O	0.12059845	0.61676295	0.06684955
O	0.12367115	0.61736185	0.1946608
O	0.12142775	0.6192033	0.3182847
O	0.12087075	0.6188697	0.44387355
O	0.12231055	0.61319305	0.56816435
O	0.12060895	0.6186834	0.6913069
O	0.12103175	0.61611095	0.81737145
O	0.12235625	0.61993505	0.94192055
O	0.1223761	0.7184128	0.06759305
O	0.12406915	0.72004935	0.19314585
O	0.1213272	0.7185875	0.3168372
O	0.1209926	0.7169774	0.44442985
O	0.12064315	0.7175682	0.56863205
O	0.1237873	0.71854435	0.69214675
O	0.12194845	0.7182736	0.81653835
O	0.12243575	0.71982305	0.9418022
O	0.1219516	0.8183339	0.0661
O	0.1213829	0.81461335	0.19161215
O	0.122324	0.81688005	0.315897
O	0.1207227	0.8163984	0.44301645
O	0.1225932	0.81650195	0.5658622
O	0.1128906	0.8006162	0.69076715
O	0.1197425	0.8167459	0.82038815
O	0.124759	0.8186887	0.94218285
O	0.12309605	0.9199744	0.06565895
O	0.1200948	0.9161337	0.19278915
O	0.1180086	0.91617925	0.3183844
O	0.12276125	0.91660015	0.4397375
O	0.12434025	0.9155298	0.5700997
O	0.12193305	0.9177871	0.69158145
O	0.12036635	0.91627985	0.8166
O	0.1237274	0.9209832	0.94138185
O	0.2234799	0.0200052	0.06724695
O	0.2224385	0.01713705	0.19072505
O	0.2226193	0.0205466	0.31597165
O	0.2245122	0.02103365	0.44186335
O	0.21953695	0.0132661	0.5675664
O	0.2213309	0.0160325	0.69196125
O	0.2217374	0.0186988	0.81603075
O	0.2231865	0.0182019	0.94116555
O	0.22348855	0.11947625	0.06659135
O	0.2226069	0.1168383	0.1910753
O	0.22255615	0.1190965	0.3175918
O	0.2216135	0.11859635	0.44188225
O	0.222592	0.11558055	0.5672827
O	0.2231739	0.11753835	0.6906752
O	0.22261205	0.11631895	0.8167579
O	0.2212417	0.11657055	0.94209425
O	0.22096195	0.21818775	0.069257
O	0.2213588	0.21883455	0.1920796
O	0.2244897	0.21620125	0.3177977
O	0.2225152	0.2182775	0.4422488
O	0.22295405	0.2170466	0.5688698
O	0.22532395	0.2190328	0.69246175
O	0.2208852	0.2196005	0.81863075
O	0.2217859	0.2189468	0.94153585
O	0.2205219	0.31845095	0.0680682
O	0.2230383	0.3166762	0.19157845
O	0.2226599	0.3168194	0.31766965
O	0.2232361	0.31903385	0.4438094
O	0.22240675	0.31832685	0.56881955
O	0.2213114	0.3183956	0.69236775
O	0.2235052	0.31947475	0.81828325
O	0.2202856	0.3183889	0.9441586
O	0.221979	0.4204222	0.0692183
O	0.22387005	0.42065685	0.19451755
O	0.2216809	0.41749565	0.31846
O	0.2218164	0.41754995	0.44281345
O	0.22202915	0.41987985	0.5653631
O	0.222627	0.41723785	0.6922857
O	0.2226161	0.42225505	0.81771045
O	0.2212854	0.4203514	0.94085615
O	0.2218363	0.51761605	0.06511395
O	0.22235075	0.5190388	0.1929271
O	0.2221143	0.5193084	0.3176771
O	0.2226679	0.5172702	0.4431444
O	0.22216145	0.51711185	0.56696435
O	0.2220365	0.51867965	0.69262925
O	0.2215112	0.5205702	0.81798465
O	0.22187205	0.51736095	0.9412377
O	0.2232903	0.6179889	0.0682094
O	0.22211615	0.61490245	0.1917634
O	0.22280055	0.61865055	0.3182441
O	0.22163225	0.6186559	0.4423565
O	0.22057935	0.617977	0.56665745
O	0.22358485	0.61891815	0.6925235
O	0.2217378	0.61947405	0.8171173
O	0.22238285	0.61988085	0.94002075
O	0.2227395	0.71779255	0.06722175
O	0.22250605	0.7173603	0.1929618
O	0.2227421	0.7164068	0.3165306
O	0.2227055	0.71978265	0.4440084
O	0.2227989	0.71628645	0.56612135
O	0.2213064	0.71846565	0.6921999
O	0.22123075	0.71695485	0.8168691
O	0.2251986	0.72133095	0.9408189
O	0.2228261	0.8189027	0.06754695
O	0.22252595	0.82057005	0.1920539
O	0.2235551	0.81840535	0.31676035
O	0.22161505	0.8182259	0.4429996
O	0.2218875	0.81718685	0.5664643
O	0.2228733	0.8144323	0.69044095
O	0.2220404	0.81767185	0.81648605
O	0.22335595	0.8202094	0.9439666
O	0.2238134	0.91842665	0.06415985
O	0.2226054	0.9186983	0.19188105
O	0.2223786	0.92004945	0.31747305
O	0.22084565	0.9214217	0.4406514
O	0.22238885	0.91960945	0.566856
O	0.2220824	0.91824725	0.6922825
O	0.22266685	0.9221368	0.8165308
O	0.22124955	0.91826945	0.939494
O	0.32389955	0.01799415	0.06647655
O	0.32326145	0.0171758	0.1923485
O	0.32402565	0.01511225	0.31518465
O	0.3216213	0.0181539	0.4421227
O	0.32415045	0.0175935	0.5684453
O	0.32231745	0.0171777	0.6930585
O	0.3240054	0.01853045	0.81852385
O	0.3229281	0.01657945	0.9428696
O	0.3227285	0.117428	0.06694455
O	0.3102237	0.10409565	0.188651
O	0.32325645	0.11550775	0.31645455
O	0.32334525	0.1136223	0.4397691
O	0.32042285	0.12069105	0.56663155
O	0.32312965	0.117709	0.69171895
O	0.32111375	0.11728445	0.8144165
O	0.3224505	0.1169732	0.94210665
O	0.32492765	0.2138408	0.0664808
O	0.32151685	0.21701475	0.19437405
O	0.3236509	0.21617235	0.318388
O	0.32452135	0.21822895	0.4399785
O	0.3228203	0.21769975	0.56557035
O	0.3216527	0.2196779	0.6904143
O	0.31978315	0.21532475	0.81731775
O	0.32180815	0.21789005	0.94242035
O	0.3234178	0.31935835	0.06574675
O	0.32091155	0.31787805	0.1929622
O	0.3225216	0.31771125	0.31846975
O	0.3240316	0.31806425	0.44476785
O	0.32350585	0.31801295	0.56895975
O	0.32195445	0.3177194	0.6906635
O	0.3205421	0.3185322	0.8177708
O	0.3218278	0.3204932	0.94257825
O	0.32186395	0.4191004	0.06936345
O	0.3225929	0.42080205	0.1922372
O	0.3241285	0.4200743	0.3169907
O	0.3243466	0.418746	0.44201785
O	0.3218041	0.4200024	0.56942875
O	0.31884775	0.4028514	0.6849115
O	0.3231674	0.41313705	0.81781485
O	0.32011055	0.4182039	0.94158775
O	0.3217471	0.5183228	0.06634175
O	0.3211046	0.51471235	0.1903174
O	0.32174925	0.517243	0.3173981
O	0.32019965	0.5190054	0.44103325
O	0.3216271	0.5184794	0.56677825
O	0.320097	0.51833265	0.6930787
O	0.32219895	0.5161327	0.81858975
O	0.3232911	0.5168157	0.94288255
O	0.3225951	0.6204043	0.0679725
O	0.32364975	0.61749745	0.1919
O	0.32398285	0.61725795	0.3212041
O	0.32242225	0.6177341	0.4411398
O	0.32232095	0.61634605	0.56738075
O	0.321292	0.61816175	0.6905922
O	0.3220313	0.6180664	0.81665445
O	0.32109855	0.6176991	0.94174355
O	0.3218202	0.7212756	0.0702889
O	0.3223825	0.71490495	0.1930852
O	0.32380665	0.7203943	0.31892145
O	0.3213339	0.7192741	0.44137905
O	0.32190485	0.72041795	0.56750995
O	0.3205745	0.7167188	0.6931712
O	0.32146625	0.7166153	0.82062485
O	0.326384	0.7181212	0.94246045
O	0.32258565	0.8193834	0.0702672
O	0.32247105	0.81820445	0.1908325
O	0.3228611	0.82105625	0.31639685
O	0.3221231	0.8187027	0.4441441
O	0.3223804	0.8183389	0.5670046
O	0.32151975	0.8176154	0.69238915
O	0.3201262	0.8184635	0.8151895
O	0.3225245	0.8205291	0.9435113
O	0.32275265	0.91997395	0.06761895
O	0.3236781	0.92130105	0.1935102
O	0.32235375	0.9182466	0.3162073
O	0.3199746	0.9182335	0.4430406
O	0.32056335	0.91727275	0.5674899
O	0.32292105	0.91786495	0.69320945
O	0.3229742	0.91896285	0.81674405
O	0.32246565	0.9208613	0.9394152
O	0.4209124	0.0169906	0.06649095
O	0.42363955	0.01987485	0.19166425
O	0.4208008	0.01772485	0.31596665
O	0.42295565	0.01775975	0.4409019
O	0.42359865	0.0205811	0.56809955
O	0.42261395	0.0186367	0.69039145
O	0.4201202	0.018991	0.817018
O	0.42381915	0.0166947	0.94207665
O	0.4238535	0.1176914	0.0691785
O	0.42391025	0.11946995	0.19029245
O	0.4243006	0.11881835	0.3180936
O	0.42206165	0.11627105	0.44147415
O	0.42251045	0.1204413	0.5674871
O	0.4229909	0.1146783	0.69324155
O	0.421893	0.1143416	0.81409745
O	0.4217542	0.1183829	0.94349015
O	0.42131315	0.21551055	0.06771065
O	0.42092135	0.2156859	0.19104085
O	0.42466875	0.21611805	0.3182148
O	0.42237835	0.2133433	0.44067495
O	0.4223116	0.21939795	0.56706755
O	0.41564005	0.20752055	0.68355505
O	0.421259	0.2206512	0.81822285
O	0.42227165	0.21935725	0.9425663
O	0.4222507	0.3212032	0.06721335
O	0.4243926	0.31738585	0.1961411
O	0.4218839	0.3205896	0.3172833
O	0.4239716	0.319251	0.4426877
O	0.42376325	0.3192124	0.56784745
O	0.4228594	0.31955715	0.69289235
O	0.42179495	0.3203107	0.8188523
O	0.4244244	0.3185523	0.9425993
O	0.42303745	0.41879105	0.06590015
O	0.42277915	0.4182237	0.1915171
O	0.4219806	0.41832545	0.3177483
O	0.42474845	0.4184491	0.4402727
O	0.4230599	0.41897945	0.56674115
O	0.4228188	0.4226157	0.6926626
O	0.4217146	0.41801745	0.8169966
O	0.4244778	0.41801835	0.94177815
O	0.42115655	0.5193791	0.06624785
O	0.42235815	0.51766285	0.1919924
O	0.4217311	0.5210226	0.31884565
O	0.4236228	0.51954065	0.4404808
O	0.4216068	0.5200725	0.56589175
O	0.4242353	0.51857955	0.69219885
O	0.4215539	0.519608	0.81752835
O	0.42215175	0.51773195	0.94130235
O	0.42481395	0.6190208	0.06407455
O	0.42203665	0.618895	0.19190145
O	0.42199115	0.61773685	0.3177194
O	0.4211751	0.61828845	0.44406655
O	0.42178605	0.61712295	0.56949745
O	0.4233127	0.61724795	0.6912063
O	0.4206233	0.61621885	0.8134392
O	0.4236979	0.61579	0.94396295
O	0.423885	0.719841	0.0685296
O	0.4244275	0.7175638	0.1922893
O	0.42396775	0.72082375	0.31750105
O	0.4232178	0.71909755	0.4422521
O	0.4201308	0.7185051	0.56734425
O	0.42238925	0.71903265	0.6914131
O	0.4230773	0.72040365	0.81723745
O	0.42076525	0.71420675	0.9430177
O	0.4238608	0.81777105	0.06638675
O	0.4245864	0.8182145	0.1942326
O	0.4202269	0.8176815	0.31793135
O	0.4231205	0.821403	0.44019515
O	0.42127155	0.8203127	0.5670188
O	0.41970805	0.8189232	0.6941576
O	0.42233565	0.8190096	0.8155609
O	0.42174195	0.82000385	0.94145515
O	0.42248855	0.91879555	0.06616635
O	0.42383105	0.9181571	0.19183595
O	0.4229526	0.91866025	0.3167643
O	0.4234901	0.9209519	0.4424505
O	0.4209815	0.9186637	0.56535555
O	0.42435945	0.9220964	0.6928919
O	0.42085305	0.9181736	0.8164925
O	0.42220605	0.92078015	0.9413478
O	0.5215915	0.01888465	0.0679991
O	0.5224949	0.0162793	0.1923467
O	0.5229194	0.0183837	0.3181818
O	0.5196863	0.0205185	0.4407575
O	0.5229715	0.02103515	0.56920615
O	0.52386175	0.0175061	0.6922017
O	0.52100925	0.0179276	0.8158674
O	0.5204889	0.01810035	0.9430641
O	0.52216125	0.11776245	0.0680059
O	0.5219034	0.1187287	0.1928862
O	0.522685	0.11871925	0.31893295
O	0.52261835	0.1173327	0.44330615
O	0.52232355	0.11745675	0.56559255
O	0.52337025	0.12059495	0.69273255
O	0.5224698	0.11848485	0.8142472
O	0.5249502	0.12160375	0.94014205
O	0.52448455	0.21605825	0.0679347
O	0.5235655	0.214576	0.19099985
O	0.52378455	0.21867145	0.31779165
O	0.5221994	0.21962245	0.44224515
O	0.52307425	0.2222681	0.5672972
O	0.52148625	0.2156677	0.6913386
O	0.52520715	0.2178966	0.81704435
O	0.52224745	0.2148348	0.9399939
O	0.52368685	0.316986	0.06676085
O	0.52107505	0.31670875	0.1940934
O	0.522657	0.3180563	0.31858755
O	0.52142695	0.31867825	0.44483255
O	0.52420895	0.3212276	0.5681261
O	0.52347155	0.3195816	0.6913313
O	0.52481835	0.32095085	0.8179324
O	0.52268805	0.3167663	0.94136075
O	0.5226752	0.42061805	0.0668278
O	0.52267805	0.42118745	0.19164255
O	0.52449045	0.4201303	0.31792125
O	0.52212435	0.4197784	0.44378505
O	0.5232631	0.4192817	0.5656101
O	0.5216394	0.41855465	0.69345235
O	0.52183805	0.4205876	0.8183051
O	0.5227049	0.4204532	0.9420659
O	0.5190386	0.5012837	0.06026155
O	0.5231769	0.51845695	0.191876
O	0.52238595	0.51812195	0.31576735
O	0.520881	0.51683585	0.441655
O	0.52233515	0.5153323	0.5666233
O	0.51962405	0.51694155	0.6919792
O	0.5237112	0.51750015	0.81467065
O	0.5243296	0.5159953	0.9415201
O	0.52338185	0.6151597	0.06563715
O	0.52404805	0.6163389	0.19208175
O	0.5231851	0.6203038	0.3148527
O	0.52220705	0.61893785	0.44122915
O	0.52240925	0.61809535	0.56700165
O	0.52262365	0.61689185	0.69312105
O	0.5229013	0.61906395	0.81674825
O	0.52052675	0.61892565	0.94159075
O	0.5218171	0.7217126	0.06951775
O	0.52029785	0.7181873	0.19497485
O	0.52357855	0.7194517	0.3168986
O	0.52478765	0.72133	0.441737
O	0.5205655	0.7182444	0.5696188
O	0.5207964	0.71906395	0.692523
O	0.5067968	0.7040128	0.81273755
O	0.52095095	0.71778835	0.9406931
O	0.52367055	0.81917235	0.06593785
O	0.5191644	0.81809595	0.1892648
O	0.5211593	0.8176973	0.3171894
O	0.5213863	0.81885395	0.44281785
O	0.52142595	0.81914465	0.5673258
O	0.5227367	0.8218233	0.6925954
O	0.5206598	0.8196262	0.81945075
O	0.52286665	0.8187815	0.9440413
O	0.52229545	0.91819805	0.06593185
O	0.5241935	0.9201577	0.191133
O	0.5201375	0.91759865	0.31659595
O	0.52302225	0.92020865	0.44192725
O	0.5235711	0.9179201	0.56688925
O	0.5223647	0.92074445	0.69340065
O	0.52244125	0.9192933	0.8182834
O	0.52124325	0.91820865	0.94250625
O	0.6233726	0.0170434	0.0690451
O	0.62312605	0.01873665	0.1905498
O	0.62337345	0.0217459	0.31794275
O	0.6202089	0.0188972	0.44278535
O	0.61965765	0.016637	0.5659648
O	0.622194	0.01759075	0.6906278
O	0.6223377	0.0182619	0.81540365
O	0.62190575	0.01990075	0.9433797
O	0.62045115	0.1171882	0.06572775
O	0.6226822	0.1210262	0.1928665
O	0.62174315	0.11573675	0.3173977
O	0.6212367	0.1186345	0.44294125
O	0.62206325	0.12098555	0.56786755
O	0.6237579	0.12247635	0.69193455
O	0.6221076	0.11766595	0.8166819
O	0.6214522	0.1157491	0.9403595
O	0.62198825	0.21625285	0.0717171
O	0.62234425	0.21670865	0.19127485
O	0.6212681	0.2175634	0.3196871
O	0.62322245	0.21722765	0.44405225
O	0.6217402	0.2193251	0.5675299
O	0.6201134	0.21999825	0.6932343
O	0.62287415	0.2193782	0.8174191
O	0.6226652	0.2179162	0.94085065
O	0.6250657	0.3158317	0.06816165
O	0.62446525	0.3187957	0.19220845
O	0.62181255	0.31848165	0.31659035
O	0.62274845	0.3197724	0.44273025
O	0.62286905	0.31800415	0.56606275
O	0.62195225	0.32013775	0.6924902
O	0.62171885	0.31851315	0.81685995
O	0.62332395	0.3175513	0.94139245
O	0.62253065	0.4209245	0.0664903
O	0.6224045	0.4189893	0.1913707
O	0.62080795	0.4185189	0.3183171
O	0.62044955	0.41863825	0.44237395
O	0.6240855	0.41791785	0.56457995
O	0.62344235	0.4177926	0.69058215
O	0.62355065	0.417628	0.8182016
O	0.6222384	0.41916585	0.94298025
O	0.6205404	0.51819595	0.0667578
O	0.62200365	0.5185572	0.19217035
O	0.6231461	0.5188671	0.3178251
O	0.6222644	0.51884215	0.44209405
O	0.6227958	0.5188889	0.5668536
O	0.62309535	0.5185079	0.6921545
O	0.62240645	0.5194748	0.8165366
O	0.6226667	0.51859945	0.94006305
O	0.62123245	0.6193829	0.066286
O	0.6215156	0.618477	0.1924055
O	0.6203329	0.61539545	0.3176451
O	0.6208272	0.6168618	0.44262815
O	0.62066895	0.6183384	0.5693583
O	0.62261215	0.61864075	0.69389985
O	0.62446245	0.6200631	0.8157627
O	0.62243965	0.61799285	0.9436934
O	0.62268705	0.71782155	0.06686825
O	0.6231474	0.7168442	0.1920294
O	0.6223096	0.71888575	0.31460715
O	0.60983	0.71000545	0.4395884
O	0.6251925	0.72001095	0.56677755
O	0.6229181	0.71715755	0.69475455
O	0.6216541	0.72004875	0.8196627
O	0.62217945	0.71840675	0.94060955
O	0.6230853	0.81447625	0.0648505
O	0.6223701	0.81974255	0.19357255
O	0.62169875	0.8188991	0.3184384
O	0.6228328	0.8219411	0.4417402
O	0.6210223	0.81634	0.5660412
O	0.6212836	0.81995015	0.6915479
O	0.62193675	0.81755745	0.8141893
O	0.6233475	0.8186377	0.9442251
O	0.6226849	0.91908645	0.06713755
O	0.6239089	0.920549	0.19114865
O	0.621551	0.91960735	0.31791165
O	0.6234081	0.91640325	0.4438007
O	0.62427585	0.9226379	0.56796845
O	0.62275465	0.9199358	0.69613235
O	0.62069985	0.91969925	0.8189764
O	0.6204255	0.9206222	0.94199425
O	0.723478	0.0181559	0.06847035
O	0.7205203	0.01774325	0.1943864
O	0.7205525	0.0189218	0.3162253
O	0.72272795	0.01713125	0.4415943
O	0.72233765	0.0172595	0.5675778
O	0.7221098	0.0182635	0.69244265
O	0.72200515	0.01949745	0.8177995
O	0.7231907	0.0196943	0.9436257
O	0.7228162	0.11907205	0.06552445
O	0.7204422	0.1179082	0.1938139
O	0.72029975	0.114841	0.31607055
O	0.7218689	0.1185222	0.44135945
O	0.7212131	0.11672925	0.5652897
O	0.7233253	0.11561125	0.6924414
O	0.72158645	0.1197351	0.8179642
O	0.72357885	0.11596305	0.9446058
O	0.7210381	0.2165035	0.0677615
O	0.72168355	0.2178092	0.19118125
O	0.7231439	0.21856265	0.31890025
O	0.7239039	0.2203906	0.442056
O	0.72103625	0.2190808	0.56554935
O	0.7192884	0.2176128	0.69110575
O	0.7223892	0.21968915	0.8174265
O	0.7242209	0.2188703	0.94032905
O	0.7226744	0.31815475	0.06572655
O	0.7220242	0.31844785	0.1946223
O	0.720658	0.31904455	0.318408
O	0.72190625	0.31833125	0.44117195
O	0.721035	0.31818505	0.5685735
O	0.7227077	0.3189685	0.69110415
O	0.7224838	0.3188162	0.8172944
O	0.7224638	0.3181833	0.9428783
O	0.72363065	0.42192535	0.06839315
O	0.72269595	0.41942055	0.1925878
O	0.72287525	0.4193935	0.31580145
O	0.7242087	0.41876165	0.4429926
O	0.7213527	0.4184684	0.5663563
O	0.7221767	0.41935085	0.69193345
O	0.7217979	0.4188406	0.8172279
O	0.72375065	0.41733915	0.94081245
O	0.72272095	0.51823975	0.06765815
O	0.72121195	0.51963665	0.1927015
O	0.721205	0.51861795	0.31651085
O	0.72384625	0.51654535	0.44210585
O	0.72215615	0.5177029	0.56843655
O	0.72136295	0.51889945	0.6940191
O	0.724293	0.52047755	0.81681235
O	0.72067965	0.5174183	0.9428588
O	0.72290515	0.6175349	0.06497125
O	0.72277745	0.61746125	0.19291855
O	0.72152805	0.61885385	0.3190966
O	0.72350295	0.6160499	0.44340895
O	0.7233173	0.6166724	0.5672875
O	0.7214292	0.62069405	0.69074575
O	0.7230199	0.6156432	0.8179592
O	0.7227257	0.61894465	0.94280375
O	0.72318695	0.71841235	0.0690191
O	0.7195973	0.71675755	0.19133945
O	0.7220654	0.7164187	0.31677555
O	0.72216505	0.7170061	0.439439
O	0.71951355	0.72046545	0.5696702
O	0.72405085	0.71920175	0.69273095
O	0.7244497	0.7188798	0.817647
O	0.72127115	0.71949425	0.94271265
O	0.7218779	0.8194105	0.0667129
O	0.72089695	0.8203646	0.192733
O	0.722084	0.82118575	0.31588985
O	0.7218873	0.8154875	0.4419944
O	0.7227037	0.81706325	0.56720575
O	0.7215599	0.81587535	0.6905707
O	0.7218412	0.81804055	0.816559
O	0.72295635	0.81883525	0.94342955
O	0.7219558	0.9172327	0.06777925
O	0.72174235	0.92028795	0.19341285
O	0.72173725	0.92019305	0.31574015
O	0.71989355	0.91701425	0.44080405
O	0.72228625	0.92004425	0.56740675
O	0.72311	0.9169212	0.6910388
O	0.7203513	0.91926465	0.81768135
O	0.7233311	0.9195198	0.9429315
O	0.8222915	0.018404	0.0694943
O	0.8236333	0.0189048	0.19245795
O	0.8214474	0.01548985	0.3168564
O	0.8218317	0.01904945	0.44160245
O	0.8221018	0.01673155	0.56738205
O	0.8225359	0.01776985	0.6943004
O	0.8234895	0.02068245	0.8184641
O	0.82157305	0.0180562	0.94115115
O	0.8231845	0.12051305	0.06703975
O	0.8211919	0.1168333	0.19206395
O	0.82222	0.1190532	0.3169637
O	0.8207001	0.11752385	0.44265115
O	0.82155465	0.11848375	0.5678937
O	0.8226597	0.1174479	0.6910078
O	0.82428905	0.11667055	0.81905905
O	0.81945635	0.11813395	0.94485245
O	0.8221098	0.2180112	0.0693023
O	0.8230564	0.21908635	0.19139905
O	0.82063335	0.219347	0.3156871
O	0.82317255	0.2217131	0.44257435
O	0.82265725	0.22024875	0.56707355
O	0.82107845	0.2180404	0.69178375
O	0.8231657	0.21891575	0.8171419
O	0.82186625	0.217958	0.9416998
O	0.82249005	0.31957925	0.06646715
O	0.8219826	0.31638175	0.19482145
O	0.82161845	0.3211209	0.3167171
O	0.8239499	0.3192649	0.44507585
O	0.8220211	0.3189526	0.5687307
O	0.82001975	0.3191751	0.6947604
O	0.8230716	0.31774295	0.8185984
O	0.8225723	0.3192459	0.94221505
O	0.82312035	0.4178978	0.06836765
O	0.8222395	0.41929805	0.1923715
O	0.82898005	0.4409853	0.3167923
O	0.82273575	0.41897195	0.4446009
O	0.82160125	0.41523685	0.56468665
O	0.822061	0.4170958	0.6927838
O	0.82351845	0.4179056	0.8171317
O	0.8212432	0.41777625	0.94126365
O	0.8237178	0.51854515	0.06841475
O	0.82150215	0.5201256	0.1940763
O	0.81986875	0.51716765	0.31717845
O	0.821361	0.5173061	0.4427201
O	0.82140985	0.51753445	0.56765095
O	0.8225555	0.5204063	0.69117815
O	0.82003575	0.518446	0.81668185
O	0.82274315	0.51847385	0.942866
O	0.8212835	0.62076125	0.0680024
O	0.82237295	0.61641815	0.1929677
O	0.8230299	0.6190441	0.3172951
O	0.82132305	0.61802345	0.44153025
O	0.8229941	0.6173877	0.56800735
O	0.82406875	0.6179226	0.69065675
O	0.82421295	0.6193553	0.81924045
O	0.8214247	0.61693225	0.94042755
O	0.81833245	0.71883465	0.0664813
O	0.82110835	0.7179193	0.19186295
O	0.82325205	0.7170121	0.31914805
O	0.8249433	0.71710175	0.4418894
O	0.8237109	0.7198422	0.5672036
O	0.8220839	0.71561785	0.6921668
O	0.8226942	0.7183774	0.8187941
O	0.82182715	0.7208379	0.9423338
O	0.8210218	0.8187372	0.06787045
O	0.82346975	0.81781985	0.19262275
O	0.8211159	0.82017205	0.316054
O	0.82291995	0.8162992	0.4418823
O	0.821084	0.81793825	0.56697845
O	0.8224278	0.81566415	0.6942408
O	0.82157305	0.81671475	0.8163753
O	0.82039775	0.817638	0.9414386
O	0.821051	0.91868365	0.06672045
O	0.8199116	0.91732505	0.19205155
O	0.8190785	0.9190177	0.3162427
O	0.82242385	0.92073695	0.4404163
O	0.8204429	0.91914345	0.56719505
O	0.82190915	0.91865265	0.69231055
O	0.82235385	0.9190904	0.81887055
O	0.822812	0.91876905	0.9403511
O	0.92385825	0.01807665	0.06743565
O	0.92322495	0.0197889	0.1909992
O	0.9218722	0.0158815	0.31668855
O	0.9212383	0.0183263	0.44296015
O	0.92218985	0.01841805	0.56647985
O	0.92283785	0.0159587	0.6910042
O	0.92379775	0.0175314	0.8168674
O	0.92151355	0.0190713	0.941755
O	0.92209465	0.11847025	0.0662342
O	0.9255239	0.11973735	0.19165415
O	0.92166935	0.1192048	0.3169814
O	0.9236189	0.1198893	0.44415495
O	0.92317315	0.1193334	0.56666675
O	0.9212377	0.1192323	0.6920485
O	0.9231892	0.1166592	0.81576645
O	0.9217182	0.1188333	0.94320365
O	0.9223905	0.21861225	0.0650898
O	0.92446635	0.21909635	0.1922575
O	0.9241591	0.2175798	0.3184517
O	0.9239844	0.21894645	0.439825
O	0.92376835	0.22108975	0.56909925
O	0.9213435	0.2178949	0.6925529
O	0.9231496	0.2175621	0.8180095
O	0.9209268	0.2198417	0.94214395
O	0.9212904	0.32040835	0.06791225
O	0.923868	0.32020845	0.19290965
O	0.92151995	0.3195834	0.3181681
O	0.91996875	0.31854485	0.44065165
O	0.9234815	0.31792435	0.5658808
O	0.9237728	0.3193831	0.68740495
O	0.9218704	0.3176289	0.8170827
O	0.92442985	0.32028035	0.9413745
O	0.9184922	0.4074225	0.05931035
O	0.9212308	0.41938115	0.19087835
O	0.93320685	0.43650025	0.3169324
O	0.92151385	0.41866355	0.44178655
O	0.92349015	0.4179838	0.56917
O	0.92436455	0.4209933	0.6914114
O	0.921245	0.4186712	0.81690555
O	0.92178515	0.41876425	0.940996
O	0.92366615	0.5182777	0.06699055
O	0.9222727	0.51726925	0.19229095
O	0.92186345	0.51854245	0.31563145
O	0.9241532	0.51696955	0.4441368
O	0.9219133	0.5175375	0.56802585
O	0.92406295	0.5171842	0.69275815
O	0.92307345	0.5166814	0.8172205
O	0.92180265	0.5172889	0.9436554
O	0.92277265	0.6179234	0.0669193
O	0.92318985	0.6162295	0.19064675
O	0.9228365	0.6194862	0.31857305
O	0.9215223	0.6187147	0.4418417
O	0.9231014	0.61837495	0.5666993
O	0.92515755	0.62048135	0.69165515
O	0.92332055	0.6186529	0.8165693
O	0.921879	0.61940195	0.9401324
O	0.9205574	0.71684075	0.06352605
O	0.92029	0.7161475	0.19217955
O	0.92199665	0.7180759	0.31934515
O	0.92254875	0.7175172	0.4419607
O	0.9210887	0.71970115	0.5673111
O	0.92107155	0.71710565	0.69101365
O	0.92306205	0.71909345	0.8159901
O	0.921411	0.71696305	0.94272465
O	0.9235794	0.8180472	0.0675059
O	0.9225573	0.8178153	0.1918059
O	0.9218773	0.8153068	0.3176377
O	0.92321565	0.8196319	0.44227705
O	0.92259775	0.81737725	0.5679961
O	0.923296	0.82013415	0.6936873
O	0.9237467	0.8197002	0.817061
O	0.92397935	0.8191801	0.94134425
O	0.9205913	0.9175652	0.06830535
O	0.92183005	0.91974745	0.19336575
O	0.9216371	0.91876225	0.3159261
O	0.9208729	0.9183826	0.4407851
O	0.9230631	0.9180592	0.5674951
O	0.92098045	0.91788425	0.6923813
O	0.9216945	0.9185868	0.81689215
O	0.92245345	0.91927425	0.9414157
